<?xml version="1.0" encoding="UTF-8"?>

<!-- generated on 2024-12-20 18:57:58.700053 by osmWebWizard.py v1_21_0+0000-d7b3b481c43
<configuration>
    <net-file value="C:\Programming\BYOP\2024-12-20-18-57-53\osm.net.xml.gz"/>
    <output-trip-file value="C:\Programming\BYOP\2024-12-20-18-57-53\osm.passenger.trips.xml"/>
    <route-file value="C:\Programming\BYOP\2024-12-20-18-57-53\osm.passenger.rou.xml"/>
    <prefix value="veh"/>
    <trip-attributes value="departLane=&quot;best&quot;"/>
    <fringe-start-attributes value="departSpeed=&quot;max&quot;"/>
    <vehicle-class value="passenger"/>
    <lanes value="True"/>
    <fringe-factor value="5"/>
    <allow-fringe.min-length value="1000.0"/>
    <via-edge-types value="highway.motorway,highway.motorway_link,highway.trunk_link,highway.primary_link,highway.secondary_link,highway.tertiary_link"/>
    <min-distance value="300.0"/>
    <min-distance.fringe value="10.0"/>
    <remove-loops value="True"/>
    <validate value="True"/>
    <insertion-density value="12.0"/>
</configuration>
-->

<!-- generated on 2024-12-20 18:57:58 by Eclipse SUMO duarouter Version 1.21.0
<duarouterConfiguration xmlns:xsi="http://www.w3.org/2001/XMLSchema-instance" xsi:noNamespaceSchemaLocation="http://sumo.dlr.de/xsd/duarouterConfiguration.xsd">

    <input>
        <net-file value="C:\Programming\BYOP\2024-12-20-18-57-53\osm.net.xml.gz"/>
        <route-files value="C:\Programming\BYOP\2024-12-20-18-57-53\osm.passenger.trips.xml"/>
    </input>

    <output>
        <output-file value="C:\Programming\BYOP\2024-12-20-18-57-53\osm.passenger.trips.xml.tmp"/>
        <alternatives-output value="NUL"/>
        <write-trips value="true"/>
    </output>

    <processing>
        <remove-loops value="true"/>
    </processing>

    <time>
        <begin value="0.0"/>
        <end value="3600.0"/>
    </time>

    <report>
        <no-warnings value="true"/>
        <ignore-errors value="true"/>
        <no-step-log value="true"/>
    </report>

</duarouterConfiguration>
-->

<routes xmlns:xsi="http://www.w3.org/2001/XMLSchema-instance" xsi:noNamespaceSchemaLocation="http://sumo.dlr.de/xsd/routes_file.xsd">
    <vType id="veh_passenger" vClass="passenger"/>
    <trip id="veh0" type="veh_passenger" depart="0.00" departLane="best" from="-526771305#2" to="-1036287937#0"/>
    <trip id="veh1" type="veh_passenger" depart="94.99" departLane="best" from="1036287937#0" to="526771305#4"/>
    <trip id="veh2" type="veh_passenger" depart="189.99" departLane="best" from="1036287937#1" to="-95707836#0"/>
    <trip id="veh3" type="veh_passenger" depart="284.98" departLane="best" from="1036287937#1" to="1292483366#1"/>
    <trip id="veh5" type="veh_passenger" depart="474.97" departLane="best" from="1036287937#2" to="526771305#2"/>
    <trip id="veh6" type="veh_passenger" depart="569.96" departLane="best" from="95707836#1" to="-1036287937#0"/>
    <trip id="veh7" type="veh_passenger" depart="664.96" departLane="best" from="95707836#1" to="-1036287937#0"/>
    <trip id="veh8" type="veh_passenger" depart="759.95" departLane="best" from="1036287937#0" to="526771305#4"/>
    <trip id="veh9" type="veh_passenger" depart="854.94" departLane="best" from="1036287937#0" to="526771305#3"/>
    <trip id="veh10" type="veh_passenger" depart="949.94" departLane="best" from="-526771305#2" to="4971160#0"/>
    <trip id="veh11" type="veh_passenger" depart="1044.93" departLane="best" from="1036287937#2" to="-95707836#2"/>
    <trip id="veh12" type="veh_passenger" depart="1139.93" departLane="best" from="95707836#0" to="-1036287937#1"/>
    <trip id="veh13" type="veh_passenger" depart="1234.92" departLane="best" from="-526771305#3" to="-1036287937#0"/>
    <trip id="veh14" type="veh_passenger" depart="1329.91" departLane="best" from="-4971184" to="-1036287937#3"/>
    <trip id="veh15" type="veh_passenger" depart="1424.91" departLane="best" from="4971185" to="-1036287937#3"/>
    <trip id="veh16" type="veh_passenger" depart="1519.90" departLane="best" from="95707836#0" to="4967600#0"/>
    <trip id="veh17" type="veh_passenger" depart="1614.90" departLane="best" from="-4967600#1" to="526771305#4"/>
    <trip id="veh18" type="veh_passenger" depart="1709.89" departLane="best" from="95707836#1" to="-1036287937#3"/>
    <trip id="veh20" type="veh_passenger" depart="1899.88" departLane="best" from="-526771305#2" to="-1036287937#1"/>
    <trip id="veh21" type="veh_passenger" depart="1994.87" departLane="best" from="95707836#0" to="-1036287937#3"/>
    <trip id="veh22" type="veh_passenger" depart="2089.86" departLane="best" from="1036287937#0" to="4971185"/>
    <trip id="veh23" type="veh_passenger" depart="2184.86" departLane="best" from="1036287937#0" to="526771305#4"/>
    <trip id="veh24" type="veh_passenger" depart="2279.85" departLane="best" from="1036287937#4" to="95707836#1"/>
    <trip id="veh25" type="veh_passenger" depart="2374.85" departLane="best" from="1036287937#5" to="526771305#4"/>
    <trip id="veh26" type="veh_passenger" depart="2469.84" departLane="best" from="-526771305#2" to="-1036287937#0"/>
    <trip id="veh27" type="veh_passenger" depart="2564.83" departLane="best" from="-526771305#3" to="-1036287937#1"/>
    <trip id="veh28" type="veh_passenger" depart="2659.83" departLane="best" from="-4967600#1" to="526771305#2"/>
    <trip id="veh29" type="veh_passenger" depart="2754.82" departLane="best" from="-4967600#0" to="4971185"/>
    <trip id="veh30" type="veh_passenger" depart="2849.81" departLane="best" from="-4971160#1" to="526771305#3"/>
    <trip id="veh31" type="veh_passenger" depart="2944.81" departLane="best" from="-4967600#1" to="4971185"/>
    <trip id="veh32" type="veh_passenger" depart="3039.80" departLane="best" from="-526771305#3" to="4967600#1"/>
    <trip id="veh33" type="veh_passenger" depart="3134.80" departLane="best" from="1036287937#0" to="526771305#4"/>
    <trip id="veh34" type="veh_passenger" depart="3229.79" departLane="best" from="-4971160#1" to="4971185"/>
    <trip id="veh35" type="veh_passenger" depart="3324.78" departLane="best" from="95707836#0" to="-4967233#3"/>
    <trip id="veh36" type="veh_passenger" depart="3419.78" departLane="best" from="95707836#0" to="-1036287937#1"/>
    <trip id="veh37" type="veh_passenger" depart="3514.77" departLane="best" from="1036287937#0" to="526771305#3"/>
</routes>
