<?xml version="1.0" encoding="UTF-8"?>

<!-- generated on 2024-12-20 18:57:58.897767 by osmWebWizard.py v1_21_0+0000-d7b3b481c43
<configuration>
    <net-file value="C:\Programming\BYOP\2024-12-20-18-57-53\osm.net.xml.gz"/>
    <output-trip-file value="C:\Programming\BYOP\2024-12-20-18-57-53\osm.pedestrian.trips.xml"/>
    <route-file value="C:\Programming\BYOP\2024-12-20-18-57-53\osm.pedestrian.rou.xml"/>
    <pedestrians value="True"/>
    <prefix value="ped"/>
    <vehicle-class value="pedestrian"/>
    <fringe-factor value="1"/>
    <max-distance value="2000.0"/>
    <insertion-density value="10.0"/>
</configuration>
-->

<!-- generated on 2024-12-20 18:57:58 by Eclipse SUMO duarouter Version 1.21.0
<duarouterConfiguration xmlns:xsi="http://www.w3.org/2001/XMLSchema-instance" xsi:noNamespaceSchemaLocation="http://sumo.dlr.de/xsd/duarouterConfiguration.xsd">

    <input>
        <net-file value="C:\Programming\BYOP\2024-12-20-18-57-53\osm.net.xml.gz"/>
        <route-files value="C:\Programming\BYOP\2024-12-20-18-57-53\osm.pedestrian.trips.xml"/>
    </input>

    <output>
        <output-file value="C:\Programming\BYOP\2024-12-20-18-57-53\osm.pedestrian.rou.xml"/>
        <alternatives-output value="NUL"/>
    </output>

    <time>
        <begin value="0.0"/>
        <end value="3600.0"/>
    </time>

    <report>
        <no-warnings value="true"/>
        <ignore-errors value="true"/>
        <no-step-log value="true"/>
    </report>

</duarouterConfiguration>
-->

<routes xmlns:xsi="http://www.w3.org/2001/XMLSchema-instance" xsi:noNamespaceSchemaLocation="http://sumo.dlr.de/xsd/routes_file.xsd">
    <vType id="ped_pedestrian" vClass="pedestrian"/>
    <person id="ped2" type="ped_pedestrian" depart="651.55">
        <walk edges="1306391205#0 1006784610#0 1006784610#1 1006784610#2"/>
    </person>
    <person id="ped7" type="ped_pedestrian" depart="2280.44">
        <walk edges="1006784610#1 1006784608#1 1006784608#0"/>
    </person>
</routes>
