<?xml version="1.0" encoding="UTF-8"?>

<!-- generated on 2024-12-20 18:45:20.057160 by osmWebWizard.py v1_21_0+0000-d7b3b481c43
<configuration>
    <net-file value="C:\Programming\BYOP\2024-12-20-18-45-06\osm.net.xml.gz"/>
    <output-trip-file value="C:\Programming\BYOP\2024-12-20-18-45-06\osm.pedestrian.trips.xml"/>
    <route-file value="C:\Programming\BYOP\2024-12-20-18-45-06\osm.pedestrian.rou.xml"/>
    <pedestrians value="True"/>
    <prefix value="ped"/>
    <vehicle-class value="pedestrian"/>
    <fringe-factor value="1"/>
    <max-distance value="2000.0"/>
    <insertion-density value="10.0"/>
</configuration>
-->

<routes xmlns:xsi="http://www.w3.org/2001/XMLSchema-instance" xsi:noNamespaceSchemaLocation="http://sumo.dlr.de/xsd/routes_file.xsd">
    <vType id="ped_pedestrian" vClass="pedestrian"/>
    <person id="ped0" depart="0.00" type="ped_pedestrian">
        <walk from="24937132#1" to="-1182216838"/>
    </person>
    <person id="ped1" depart="17.25" type="ped_pedestrian">
        <walk from="1156458389#1" to="1089844098"/>
    </person>
    <person id="ped2" depart="34.49" type="ped_pedestrian">
        <walk from="32116821#0" to="25920391#1"/>
    </person>
    <person id="ped3" depart="51.74" type="ped_pedestrian">
        <walk from="533630012#6" to="-121657508#5"/>
    </person>
    <person id="ped4" depart="68.98" type="ped_pedestrian">
        <walk from="119521767#3" to="-118795297"/>
    </person>
    <person id="ped5" depart="86.23" type="ped_pedestrian">
        <walk from="1046385613" to="123434730#0"/>
    </person>
    <person id="ped6" depart="103.47" type="ped_pedestrian">
        <walk from="-1182216839" to="-4993843#1"/>
    </person>
    <person id="ped7" depart="120.72" type="ped_pedestrian">
        <walk from="24997795#2" to="131446844"/>
    </person>
    <person id="ped8" depart="137.96" type="ped_pedestrian">
        <walk from="1056191914" to="22701046#1"/>
    </person>
    <person id="ped9" depart="155.21" type="ped_pedestrian">
        <walk from="488336354#2" to="-1089844098"/>
    </person>
    <person id="ped10" depart="172.45" type="ped_pedestrian">
        <walk from="488336353" to="28583607#0"/>
    </person>
    <person id="ped11" depart="189.70" type="ped_pedestrian">
        <walk from="119369423#2" to="-22701046#2"/>
    </person>
    <person id="ped12" depart="206.94" type="ped_pedestrian">
        <walk from="623021335#2" to="118990212"/>
    </person>
    <person id="ped13" depart="224.19" type="ped_pedestrian">
        <walk from="-121761596" to="-121761600"/>
    </person>
    <person id="ped14" depart="241.43" type="ped_pedestrian">
        <walk from="499860008#0" to="22792489#4"/>
    </person>
    <person id="ped15" depart="258.68" type="ped_pedestrian">
        <walk from="488336354#0" to="32116530#2"/>
    </person>
    <person id="ped16" depart="275.92" type="ped_pedestrian">
        <walk from="131446841#3" to="688041813"/>
    </person>
    <person id="ped17" depart="293.17" type="ped_pedestrian">
        <walk from="119437841" to="131446847"/>
    </person>
    <person id="ped18" depart="310.41" type="ped_pedestrian">
        <walk from="499858358#1" to="237563865#1"/>
    </person>
    <person id="ped19" depart="327.66" type="ped_pedestrian">
        <walk from="524374653" to="186885713"/>
    </person>
    <person id="ped20" depart="344.90" type="ped_pedestrian">
        <walk from="28583609" to="-118795314#1"/>
    </person>
    <person id="ped21" depart="362.15" type="ped_pedestrian">
        <walk from="1124414474#1" to="118119094#2"/>
    </person>
    <person id="ped22" depart="379.40" type="ped_pedestrian">
        <walk from="-121657508#0" to="114134814#2"/>
    </person>
    <person id="ped23" depart="396.64" type="ped_pedestrian">
        <walk from="-121807632#1" to="1159998384#0"/>
    </person>
    <person id="ped24" depart="413.89" type="ped_pedestrian">
        <walk from="24934952#5" to="119437834#5"/>
    </person>
    <person id="ped25" depart="431.13" type="ped_pedestrian">
        <walk from="119437836" to="10058079#0"/>
    </person>
    <person id="ped26" depart="448.38" type="ped_pedestrian">
        <walk from="1156458385#0" to="56226087"/>
    </person>
    <person id="ped27" depart="465.62" type="ped_pedestrian">
        <walk from="24997795#1" to="22792491#3"/>
    </person>
    <person id="ped28" depart="482.87" type="ped_pedestrian">
        <walk from="-24934952#3" to="32116530#2"/>
    </person>
    <person id="ped29" depart="500.11" type="ped_pedestrian">
        <walk from="-22797043#1" to="119437842"/>
    </person>
    <person id="ped30" depart="517.36" type="ped_pedestrian">
        <walk from="885108461" to="24937132#1"/>
    </person>
    <person id="ped31" depart="534.60" type="ped_pedestrian">
        <walk from="15238486#1" to="27250281#1"/>
    </person>
    <person id="ped32" depart="551.85" type="ped_pedestrian">
        <walk from="499860006#1" to="340498996"/>
    </person>
    <person id="ped33" depart="569.09" type="ped_pedestrian">
        <walk from="114134814#0" to="-118795300#0"/>
    </person>
    <person id="ped34" depart="586.34" type="ped_pedestrian">
        <walk from="118795297" to="1156458385#0"/>
    </person>
    <person id="ped35" depart="603.58" type="ped_pedestrian">
        <walk from="10058079#1" to="61818952#1"/>
    </person>
    <person id="ped36" depart="620.83" type="ped_pedestrian">
        <walk from="532684444#0" to="118795297"/>
    </person>
    <person id="ped37" depart="638.07" type="ped_pedestrian">
        <walk from="25490552#0" to="119437851"/>
    </person>
    <person id="ped38" depart="655.32" type="ped_pedestrian">
        <walk from="533669351#1" to="121657507#0"/>
    </person>
    <person id="ped39" depart="672.56" type="ped_pedestrian">
        <walk from="1156129648#0" to="1156129621#1"/>
    </person>
    <person id="ped40" depart="689.81" type="ped_pedestrian">
        <walk from="15238486#4" to="1156129647#1"/>
    </person>
    <person id="ped41" depart="707.05" type="ped_pedestrian">
        <walk from="22699211#2" to="533631777#4"/>
    </person>
    <person id="ped42" depart="724.30" type="ped_pedestrian">
        <walk from="119437853" to="1056191914"/>
    </person>
    <person id="ped43" depart="741.55" type="ped_pedestrian">
        <walk from="925624092" to="126084513"/>
    </person>
    <person id="ped44" depart="758.79" type="ped_pedestrian">
        <walk from="-121657510#2" to="-118990212"/>
    </person>
    <person id="ped45" depart="776.04" type="ped_pedestrian">
        <walk from="-123394156#0" to="24934950#1"/>
    </person>
    <person id="ped46" depart="793.28" type="ped_pedestrian">
        <walk from="392906401#1" to="119521767#3"/>
    </person>
    <person id="ped47" depart="810.53" type="ped_pedestrian">
        <walk from="-119701453" to="119437843"/>
    </person>
    <person id="ped48" depart="827.77" type="ped_pedestrian">
        <walk from="925624091" to="131446838"/>
    </person>
    <person id="ped49" depart="845.02" type="ped_pedestrian">
        <walk from="67950951#2" to="524374652"/>
    </person>
    <person id="ped50" depart="862.26" type="ped_pedestrian">
        <walk from="-1156129614#0" to="32116473"/>
    </person>
    <person id="ped51" depart="879.51" type="ped_pedestrian">
        <walk from="25920391#5" to="131446842#1"/>
    </person>
    <person id="ped52" depart="896.75" type="ped_pedestrian">
        <walk from="1156129648#1" to="24937132#2"/>
    </person>
    <person id="ped53" depart="914.00" type="ped_pedestrian">
        <walk from="-123394156#1" to="119701454#0"/>
    </person>
    <person id="ped54" depart="931.24" type="ped_pedestrian">
        <walk from="121653998#2" to="623021335#0"/>
    </person>
    <person id="ped55" depart="948.49" type="ped_pedestrian">
        <walk from="532684444#0" to="1156129647#1"/>
    </person>
    <person id="ped56" depart="965.73" type="ped_pedestrian">
        <walk from="123394156#1" to="-28583609"/>
    </person>
    <person id="ped57" depart="982.98" type="ped_pedestrian">
        <walk from="533668748#1" to="532683709#0"/>
    </person>
    <person id="ped58" depart="1000.22" type="ped_pedestrian">
        <walk from="1182216838" to="24937132#0"/>
    </person>
    <person id="ped59" depart="1017.47" type="ped_pedestrian">
        <walk from="22792491#3" to="-22701046#0"/>
    </person>
    <person id="ped60" depart="1034.71" type="ped_pedestrian">
        <walk from="335246481" to="131446842#3"/>
    </person>
    <person id="ped61" depart="1051.96" type="ped_pedestrian">
        <walk from="34142174#0" to="131446840"/>
    </person>
    <person id="ped62" depart="1069.20" type="ped_pedestrian">
        <walk from="-1012806592#0" to="118795311#0"/>
    </person>
    <person id="ped63" depart="1086.45" type="ped_pedestrian">
        <walk from="-118119096#1" to="541933877#0"/>
    </person>
    <person id="ped64" depart="1103.70" type="ped_pedestrian">
        <walk from="532684957#0" to="499858360#0"/>
    </person>
    <person id="ped65" depart="1120.94" type="ped_pedestrian">
        <walk from="118603639" to="-119690746"/>
    </person>
    <person id="ped66" depart="1138.19" type="ped_pedestrian">
        <walk from="532684957#0" to="61818953#3"/>
    </person>
    <person id="ped67" depart="1155.43" type="ped_pedestrian">
        <walk from="-121657508#4" to="121807635"/>
    </person>
    <person id="ped68" depart="1172.68" type="ped_pedestrian">
        <walk from="-121653998#0" to="33124169"/>
    </person>
    <person id="ped69" depart="1189.92" type="ped_pedestrian">
        <walk from="335246483" to="-126084521#1"/>
    </person>
    <person id="ped70" depart="1207.17" type="ped_pedestrian">
        <walk from="121761593" to="131446845#3"/>
    </person>
    <person id="ped71" depart="1224.41" type="ped_pedestrian">
        <walk from="1156129648#0" to="532684443#0"/>
    </person>
    <person id="ped72" depart="1241.66" type="ped_pedestrian">
        <walk from="119521767#4" to="10058079#1"/>
    </person>
    <person id="ped73" depart="1258.90" type="ped_pedestrian">
        <walk from="131446842#2" to="32116530#2"/>
    </person>
    <person id="ped74" depart="1276.15" type="ped_pedestrian">
        <walk from="-4993843#4" to="118795291#1"/>
    </person>
    <person id="ped75" depart="1293.39" type="ped_pedestrian">
        <walk from="899609933" to="24997795#2"/>
    </person>
    <person id="ped76" depart="1310.64" type="ped_pedestrian">
        <walk from="119701454#2" to="126084521#1"/>
    </person>
    <person id="ped77" depart="1327.88" type="ped_pedestrian">
        <walk from="-126084514" to="1089844099"/>
    </person>
    <person id="ped78" depart="1345.13" type="ped_pedestrian">
        <walk from="119369423#1" to="22701046#0"/>
    </person>
    <person id="ped79" depart="1362.37" type="ped_pedestrian">
        <walk from="114134814#0" to="1056191914"/>
    </person>
    <person id="ped80" depart="1379.62" type="ped_pedestrian">
        <walk from="-121653998#1" to="24934952#2"/>
    </person>
    <person id="ped81" depart="1396.86" type="ped_pedestrian">
        <walk from="114134814#0" to="533634489#0"/>
    </person>
    <person id="ped82" depart="1414.11" type="ped_pedestrian">
        <walk from="524374652" to="-121653998#1"/>
    </person>
    <person id="ped83" depart="1431.35" type="ped_pedestrian">
        <walk from="1147030651#1" to="25490993#0"/>
    </person>
    <person id="ped84" depart="1448.60" type="ped_pedestrian">
        <walk from="10058079#3" to="-130518984"/>
    </person>
    <person id="ped85" depart="1465.85" type="ped_pedestrian">
        <walk from="56226087" to="172321798#2"/>
    </person>
    <person id="ped86" depart="1483.09" type="ped_pedestrian">
        <walk from="121657510#2" to="359234589#1"/>
    </person>
    <person id="ped87" depart="1500.34" type="ped_pedestrian">
        <walk from="488336354#0" to="-340498996"/>
    </person>
    <person id="ped88" depart="1517.58" type="ped_pedestrian">
        <walk from="-121807629" to="119694747"/>
    </person>
    <person id="ped89" depart="1534.83" type="ped_pedestrian">
        <walk from="119521767#4" to="121657508#4"/>
    </person>
    <person id="ped90" depart="1552.07" type="ped_pedestrian">
        <walk from="32116530#2" to="25490993#3"/>
    </person>
    <person id="ped91" depart="1569.32" type="ped_pedestrian">
        <walk from="875774525" to="-121807632#0"/>
    </person>
    <person id="ped92" depart="1586.56" type="ped_pedestrian">
        <walk from="119437855" to="119369423#10"/>
    </person>
    <person id="ped93" depart="1603.81" type="ped_pedestrian">
        <walk from="524374653" to="1156129623#0"/>
    </person>
    <person id="ped94" depart="1621.05" type="ped_pedestrian">
        <walk from="-340498996" to="121620933#4"/>
    </person>
    <person id="ped95" depart="1638.30" type="ped_pedestrian">
        <walk from="119521767#3" to="1159998384#1"/>
    </person>
    <person id="ped96" depart="1655.54" type="ped_pedestrian">
        <walk from="1156129623#0" to="535225500#3"/>
    </person>
    <person id="ped97" depart="1672.79" type="ped_pedestrian">
        <walk from="121620933#0" to="524374653"/>
    </person>
    <person id="ped98" depart="1690.03" type="ped_pedestrian">
        <walk from="131446845#3" to="-119521767#2"/>
    </person>
    <person id="ped99" depart="1707.28" type="ped_pedestrian">
        <walk from="99362004" to="499858361#1"/>
    </person>
    <person id="ped100" depart="1724.52" type="ped_pedestrian">
        <walk from="67950951#0" to="535225504"/>
    </person>
    <person id="ped101" depart="1741.77" type="ped_pedestrian">
        <walk from="499860008#1" to="-24736347"/>
    </person>
    <person id="ped102" depart="1759.01" type="ped_pedestrian">
        <walk from="121807633" to="10058079#3"/>
    </person>
    <person id="ped103" depart="1776.26" type="ped_pedestrian">
        <walk from="119437854" to="-119690746"/>
    </person>
    <person id="ped104" depart="1793.50" type="ped_pedestrian">
        <walk from="119437841" to="875774527"/>
    </person>
    <person id="ped105" depart="1810.75" type="ped_pedestrian">
        <walk from="1156129648#0" to="359234589#1"/>
    </person>
    <person id="ped106" depart="1828.00" type="ped_pedestrian">
        <walk from="121653998#2" to="119521767#4"/>
    </person>
    <person id="ped107" depart="1845.24" type="ped_pedestrian">
        <walk from="623021335#2" to="899609933"/>
    </person>
    <person id="ped108" depart="1862.49" type="ped_pedestrian">
        <walk from="15238486#0" to="28801999"/>
    </person>
    <person id="ped109" depart="1879.73" type="ped_pedestrian">
        <walk from="-22701046#2" to="118119096#4"/>
    </person>
    <person id="ped110" depart="1896.98" type="ped_pedestrian">
        <walk from="67950951#0" to="186885714"/>
    </person>
    <person id="ped111" depart="1914.22" type="ped_pedestrian">
        <walk from="131446843" to="32117044#0"/>
    </person>
    <person id="ped112" depart="1931.47" type="ped_pedestrian">
        <walk from="-119690745" to="22699211#1"/>
    </person>
    <person id="ped113" depart="1948.71" type="ped_pedestrian">
        <walk from="123433777#1" to="499860012#0"/>
    </person>
    <person id="ped114" depart="1965.96" type="ped_pedestrian">
        <walk from="-22701046#4" to="624101828"/>
    </person>
    <person id="ped115" depart="1983.20" type="ped_pedestrian">
        <walk from="-121657508#1" to="-340498994#1"/>
    </person>
    <person id="ped116" depart="2000.45" type="ped_pedestrian">
        <walk from="22792485#0" to="25610853"/>
    </person>
    <person id="ped117" depart="2017.69" type="ped_pedestrian">
        <walk from="1147030650#1" to="-126084513"/>
    </person>
    <person id="ped118" depart="2034.94" type="ped_pedestrian">
        <walk from="533630012#4" to="1156129621#1"/>
    </person>
    <person id="ped119" depart="2052.18" type="ped_pedestrian">
        <walk from="22792485#0" to="237563865#1"/>
    </person>
    <person id="ped120" depart="2069.43" type="ped_pedestrian">
        <walk from="119521767#1" to="22699211#1"/>
    </person>
    <person id="ped121" depart="2086.67" type="ped_pedestrian">
        <walk from="1305206959" to="56226086"/>
    </person>
    <person id="ped122" depart="2103.92" type="ped_pedestrian">
        <walk from="-67950951#1" to="28801951"/>
    </person>
    <person id="ped123" depart="2121.16" type="ped_pedestrian">
        <walk from="1147030651#1" to="119437851"/>
    </person>
    <person id="ped124" depart="2138.41" type="ped_pedestrian">
        <walk from="25490993#2" to="1182216839"/>
    </person>
    <person id="ped125" depart="2155.65" type="ped_pedestrian">
        <walk from="118795300#0" to="32117373#1"/>
    </person>
    <person id="ped126" depart="2172.90" type="ped_pedestrian">
        <walk from="-121653998#2" to="121657507#0"/>
    </person>
    <person id="ped127" depart="2190.15" type="ped_pedestrian">
        <walk from="925624092" to="925624091"/>
    </person>
    <person id="ped128" depart="2207.39" type="ped_pedestrian">
        <walk from="-121653998#3" to="10058079#2"/>
    </person>
    <person id="ped129" depart="2224.64" type="ped_pedestrian">
        <walk from="1156129648#0" to="541933879#2"/>
    </person>
    <person id="ped130" depart="2241.88" type="ped_pedestrian">
        <walk from="533526249" to="532684957#1"/>
    </person>
    <person id="ped131" depart="2259.13" type="ped_pedestrian">
        <walk from="119437836" to="-22701046#4"/>
    </person>
    <person id="ped132" depart="2276.37" type="ped_pedestrian">
        <walk from="499858360#1" to="28583607#3"/>
    </person>
    <person id="ped133" depart="2293.62" type="ped_pedestrian">
        <walk from="22792491#5" to="875774529"/>
    </person>
    <person id="ped134" depart="2310.86" type="ped_pedestrian">
        <walk from="24997795#5" to="-1089844099"/>
    </person>
    <person id="ped135" depart="2328.11" type="ped_pedestrian">
        <walk from="499858352#1" to="1182216839"/>
    </person>
    <person id="ped136" depart="2345.35" type="ped_pedestrian">
        <walk from="25490906#1" to="61818951#1"/>
    </person>
    <person id="ped137" depart="2362.60" type="ped_pedestrian">
        <walk from="-1305206959" to="-123434730#0"/>
    </person>
    <person id="ped138" depart="2379.84" type="ped_pedestrian">
        <walk from="-121860162#2" to="131446847"/>
    </person>
    <person id="ped139" depart="2397.09" type="ped_pedestrian">
        <walk from="1156458387" to="22792491#0"/>
    </person>
    <person id="ped140" depart="2414.33" type="ped_pedestrian">
        <walk from="28801968" to="-67950951#0"/>
    </person>
    <person id="ped141" depart="2431.58" type="ped_pedestrian">
        <walk from="24934952#4" to="1156129647#1"/>
    </person>
    <person id="ped142" depart="2448.82" type="ped_pedestrian">
        <walk from="121860162#0" to="533634489#0"/>
    </person>
    <person id="ped143" depart="2466.07" type="ped_pedestrian">
        <walk from="499860007#1" to="-121761593"/>
    </person>
    <person id="ped144" depart="2483.31" type="ped_pedestrian">
        <walk from="119521767#4" to="1156458390"/>
    </person>
    <person id="ped145" depart="2500.56" type="ped_pedestrian">
        <walk from="-1012806592#3" to="340498994#2"/>
    </person>
    <person id="ped146" depart="2517.80" type="ped_pedestrian">
        <walk from="24934952#6" to="1156129647#0"/>
    </person>
    <person id="ped147" depart="2535.05" type="ped_pedestrian">
        <walk from="32116849#1" to="131446846"/>
    </person>
    <person id="ped148" depart="2552.29" type="ped_pedestrian">
        <walk from="119690746" to="-1154967805"/>
    </person>
    <person id="ped149" depart="2569.54" type="ped_pedestrian">
        <walk from="-121653998#4" to="533527274"/>
    </person>
    <person id="ped150" depart="2586.79" type="ped_pedestrian">
        <walk from="533631777#8" to="131446845#0"/>
    </person>
    <person id="ped151" depart="2604.03" type="ped_pedestrian">
        <walk from="499858361#0" to="22699211#0"/>
    </person>
    <person id="ped152" depart="2621.28" type="ped_pedestrian">
        <walk from="-154879578#2" to="-126084521#0"/>
    </person>
    <person id="ped153" depart="2638.52" type="ped_pedestrian">
        <walk from="118603643" to="533631777#5"/>
    </person>
    <person id="ped154" depart="2655.77" type="ped_pedestrian">
        <walk from="474758449#0" to="524374652"/>
    </person>
    <person id="ped155" depart="2673.01" type="ped_pedestrian">
        <walk from="533631777#5" to="10058079#0"/>
    </person>
    <person id="ped156" depart="2690.26" type="ped_pedestrian">
        <walk from="1156129623#0" to="-121807635"/>
    </person>
    <person id="ped157" depart="2707.50" type="ped_pedestrian">
        <walk from="34142174#1" to="533630012#0"/>
    </person>
    <person id="ped158" depart="2724.75" type="ped_pedestrian">
        <walk from="119437858#1" to="237563865#2"/>
    </person>
    <person id="ped159" depart="2741.99" type="ped_pedestrian">
        <walk from="-22701046#2" to="541933877#2"/>
    </person>
    <person id="ped160" depart="2759.24" type="ped_pedestrian">
        <walk from="524374654#1" to="806821502#2"/>
    </person>
    <person id="ped161" depart="2776.48" type="ped_pedestrian">
        <walk from="4993843#0" to="533526249"/>
    </person>
    <person id="ped162" depart="2793.73" type="ped_pedestrian">
        <walk from="-1182216838" to="32116821#0"/>
    </person>
    <person id="ped163" depart="2810.97" type="ped_pedestrian">
        <walk from="118915351" to="541933877#2"/>
    </person>
    <person id="ped164" depart="2828.22" type="ped_pedestrian">
        <walk from="48829130#0" to="524374654#1"/>
    </person>
    <person id="ped165" depart="2845.46" type="ped_pedestrian">
        <walk from="4993843#0" to="1156129648#1"/>
    </person>
    <person id="ped166" depart="2862.71" type="ped_pedestrian">
        <walk from="378130456#0" to="-121860162#2"/>
    </person>
    <person id="ped167" depart="2879.95" type="ped_pedestrian">
        <walk from="532683709#1" to="524374651#1"/>
    </person>
    <person id="ped168" depart="2897.20" type="ped_pedestrian">
        <walk from="1089844098" to="499858352#1"/>
    </person>
    <person id="ped169" depart="2914.44" type="ped_pedestrian">
        <walk from="121657507#1" to="118603634"/>
    </person>
    <person id="ped170" depart="2931.69" type="ped_pedestrian">
        <walk from="474758449#0" to="1124414474#1"/>
    </person>
    <person id="ped171" depart="2948.94" type="ped_pedestrian">
        <walk from="-118119096#4" to="-359234589#0"/>
    </person>
    <person id="ped172" depart="2966.18" type="ped_pedestrian">
        <walk from="118795313" to="524374654#1"/>
    </person>
    <person id="ped173" depart="2983.43" type="ped_pedestrian">
        <walk from="624327807" to="1159998384#1"/>
    </person>
    <person id="ped174" depart="3000.67" type="ped_pedestrian">
        <walk from="24937132#2" to="119437853"/>
    </person>
    <person id="ped175" depart="3017.92" type="ped_pedestrian">
        <walk from="806821502#5" to="131446841#3"/>
    </person>
    <person id="ped176" depart="3035.16" type="ped_pedestrian">
        <walk from="61818951#1" to="-123434730#0"/>
    </person>
    <person id="ped177" depart="3052.41" type="ped_pedestrian">
        <walk from="67950951#1" to="-28583609"/>
    </person>
    <person id="ped178" depart="3069.65" type="ped_pedestrian">
        <walk from="624102458" to="1156129648#1"/>
    </person>
    <person id="ped179" depart="3086.90" type="ped_pedestrian">
        <walk from="-121860162#3" to="119701454#0"/>
    </person>
    <person id="ped180" depart="3104.14" type="ped_pedestrian">
        <walk from="32116530#1" to="118795295"/>
    </person>
    <person id="ped181" depart="3121.39" type="ped_pedestrian">
        <walk from="22792491#1" to="126084516#0"/>
    </person>
    <person id="ped182" depart="3138.63" type="ped_pedestrian">
        <walk from="119437845#0" to="186885712#1"/>
    </person>
    <person id="ped183" depart="3155.88" type="ped_pedestrian">
        <walk from="1156129629#1" to="28583614#1"/>
    </person>
    <person id="ped184" depart="3173.12" type="ped_pedestrian">
        <walk from="-1012806592#2" to="535225504"/>
    </person>
    <person id="ped185" depart="3190.37" type="ped_pedestrian">
        <walk from="131446842#2" to="30606100"/>
    </person>
    <person id="ped186" depart="3207.61" type="ped_pedestrian">
        <walk from="32116969#0" to="25490993#1"/>
    </person>
    <person id="ped187" depart="3224.86" type="ped_pedestrian">
        <walk from="119437834#5" to="-121653998#0"/>
    </person>
    <person id="ped188" depart="3242.10" type="ped_pedestrian">
        <walk from="25490906#1" to="118795314#1"/>
    </person>
    <person id="ped189" depart="3259.35" type="ped_pedestrian">
        <walk from="118795295" to="499860008#0"/>
    </person>
    <person id="ped190" depart="3276.59" type="ped_pedestrian">
        <walk from="30606100" to="1182216839"/>
    </person>
    <person id="ped191" depart="3293.84" type="ped_pedestrian">
        <walk from="118729587" to="119437858#2"/>
    </person>
    <person id="ped192" depart="3311.09" type="ped_pedestrian">
        <walk from="119437855" to="118119096#3"/>
    </person>
    <person id="ped193" depart="3328.33" type="ped_pedestrian">
        <walk from="-126084521#0" to="119521767#2"/>
    </person>
    <person id="ped194" depart="3345.58" type="ped_pedestrian">
        <walk from="61818951#2" to="25920391#2"/>
    </person>
    <person id="ped195" depart="3362.82" type="ped_pedestrian">
        <walk from="533631777#7" to="237563864"/>
    </person>
    <person id="ped196" depart="3380.07" type="ped_pedestrian">
        <walk from="118513484" to="131446845#2"/>
    </person>
    <person id="ped197" depart="3397.31" type="ped_pedestrian">
        <walk from="-1012806592#0" to="118113499"/>
    </person>
    <person id="ped198" depart="3414.56" type="ped_pedestrian">
        <walk from="119694747" to="186885714"/>
    </person>
    <person id="ped199" depart="3431.80" type="ped_pedestrian">
        <walk from="25490552#0" to="121657508#3"/>
    </person>
    <person id="ped200" depart="3449.05" type="ped_pedestrian">
        <walk from="119744684" to="10058079#3"/>
    </person>
    <person id="ped201" depart="3466.29" type="ped_pedestrian">
        <walk from="121657510#2" to="533631777#6"/>
    </person>
    <person id="ped202" depart="3483.54" type="ped_pedestrian">
        <walk from="474758449#0" to="-24934952#2"/>
    </person>
    <person id="ped203" depart="3500.78" type="ped_pedestrian">
        <walk from="-121657508#4" to="126084521#0"/>
    </person>
    <person id="ped204" depart="3518.03" type="ped_pedestrian">
        <walk from="24934952#3" to="118915354"/>
    </person>
    <person id="ped205" depart="3535.27" type="ped_pedestrian">
        <walk from="499858353" to="32117373#0"/>
    </person>
    <person id="ped206" depart="3552.52" type="ped_pedestrian">
        <walk from="25490993#3" to="1089844099"/>
    </person>
    <person id="ped207" depart="3569.76" type="ped_pedestrian">
        <walk from="-4993843#1" to="-1182216838"/>
    </person>
    <person id="ped208" depart="3587.01" type="ped_pedestrian">
        <walk from="1156129620#1" to="121761593"/>
    </person>
</routes>
