<?xml version="1.0" encoding="UTF-8"?>

<!-- generated on 2024-12-20 18:45:20.380982 by osmWebWizard.py v1_21_0+0000-d7b3b481c43
<configuration>
    <net-file value="C:\Programming\BYOP\2024-12-20-18-45-06\osm.net.xml.gz"/>
    <output-trip-file value="C:\Programming\BYOP\2024-12-20-18-45-06\osm.pedestrian.trips.xml"/>
    <route-file value="C:\Programming\BYOP\2024-12-20-18-45-06\osm.pedestrian.rou.xml"/>
    <pedestrians value="True"/>
    <prefix value="ped"/>
    <vehicle-class value="pedestrian"/>
    <fringe-factor value="1"/>
    <max-distance value="2000.0"/>
    <insertion-density value="10.0"/>
</configuration>
-->

<!-- generated on 2024-12-20 18:45:20 by Eclipse SUMO duarouter Version 1.21.0
<duarouterConfiguration xmlns:xsi="http://www.w3.org/2001/XMLSchema-instance" xsi:noNamespaceSchemaLocation="http://sumo.dlr.de/xsd/duarouterConfiguration.xsd">

    <input>
        <net-file value="C:\Programming\BYOP\2024-12-20-18-45-06\osm.net.xml.gz"/>
        <route-files value="C:\Programming\BYOP\2024-12-20-18-45-06\osm.pedestrian.trips.xml"/>
    </input>

    <output>
        <output-file value="C:\Programming\BYOP\2024-12-20-18-45-06\osm.pedestrian.rou.xml"/>
        <alternatives-output value="NUL"/>
    </output>

    <time>
        <begin value="0.0"/>
        <end value="3600.0"/>
    </time>

    <report>
        <no-warnings value="true"/>
        <ignore-errors value="true"/>
        <no-step-log value="true"/>
    </report>

</duarouterConfiguration>
-->

<routes xmlns:xsi="http://www.w3.org/2001/XMLSchema-instance" xsi:noNamespaceSchemaLocation="http://sumo.dlr.de/xsd/routes_file.xsd">
    <vType id="ped_pedestrian" vClass="pedestrian"/>
    <person id="ped0" type="ped_pedestrian" depart="0.00">
        <walk edges="24937132#1 -24937132#0 -1182216838"/>
    </person>
    <person id="ped2" type="ped_pedestrian" depart="34.49">
        <walk edges="32116821#0 32116530#2 32116530#1 32116530#0 25920391#1"/>
    </person>
    <person id="ped3" type="ped_pedestrian" depart="51.74">
        <walk edges="533630012#6 499858358#1 474758448#1 474758449#1 499858361#0 474758449#0 499858361#1 499858363 1156129632#1 1156129633#1 335246482#1 335246482#0 237563865#2 -118990212 15238486#0 -15238486#1 -15238486#2 -15238486#3 -15238486#4 -15238486#6 -15238486#7 22797042 121657507#1 -121657507#0 -121657508#4 -121657508#5"/>
    </person>
    <person id="ped4" type="ped_pedestrian" depart="68.98">
        <walk edges="119521767#3 -24934952#4 24934952#3 -24934952#2 -24934952#1 533634489#0 123394155#1 499858354#1 499858354#0 1156129648#1 499858352#1 1156129648#0 1156129647#1 1156129645#1 1156129647#0 1156129645#0 499858355#0 499858355#1 499858355#2 499858355#3 499858358#2 499858358#1 474758448#1 474758449#1 499858361#0 474758449#0 499858361#1 499858363 1156129632#1 1156129633#1 335246482#1 335246482#0 237563865#2 -118990212 22792491#0 22792491#1 -118795297"/>
    </person>
    <person id="ped5" type="ped_pedestrian" depart="86.23">
        <walk edges="1046385613 1156129621#1 1156129618#1 1156129620#1 499860012#1 -123434730#2 -123434730#1 123434730#0"/>
    </person>
    <person id="ped6" type="ped_pedestrian" depart="103.47">
        <walk edges="-1182216839 -1182216838 -24937132#0 -24937132#1 -123433777#0 -123433777#1 499858353 1156129648#1 499858352#1 1156129648#0 1156129647#1 1156129645#1 1156129647#0 1156129645#0 499858355#0 499858355#1 499858355#2 499858355#3 499858358#2 499858358#1 474758448#1 474758449#1 499858361#0 474758449#0 499858361#1 533631777#8 533631777#7 118795311#0 118795311#1 118795311#2 25490993#3 25490993#2 25490993#1 25490993#0 -4993843#1"/>
    </person>
    <person id="ped7" type="ped_pedestrian" depart="120.72">
        <walk edges="24997795#2 25490993#1 25490993#2 25490993#3 118795311#2 118795311#1 118795314#0 -118795314#1 118795295 885108462 885108461 237563864 186885712#0 186885713 56226086 61818951#0 61818951#1 61818951#2 131446844"/>
    </person>
    <person id="ped8" type="ped_pedestrian" depart="137.96">
        <walk edges="1056191914 237563865#0 237563865#1 237563865#2 1124414474#0 1124414474#1 499858364#0 499858364#1 499860006#0 499860006#1 1156129629#1 1156129627#1 1156129626#1 499860007#0 499860007#1 1012806592#3 1012806592#2 -1012806592#0 -118119096#0 -118119096#1 -118119096#2 118119096#3 -118119096#4 -22701046#0 22701046#1"/>
    </person>
    <person id="ped10" type="ped_pedestrian" depart="172.45">
        <walk edges="488336353 24997794#1 24997794#2 533631777#1 533631777#2 533631777#3 533631777#4 533631777#5 1156458388#1 25490906#1 1156458387 1156458385#0 1156458385#1 1147030651#1 533630012#4 533630012#5 533630012#6 499858358#2 499858355#3 499858355#2 499858355#1 499858355#0 1156129645#0 1156129647#0 1156129645#1 1156129647#1 1156129648#0 499858352#1 1156129648#1 499858353 335246484#1 1156129622#1 1012806592#3 22699211#3 22699211#2 22699211#1 10058079#3 -28583609 28583607#0"/>
    </person>
    <person id="ped11" type="ped_pedestrian" depart="189.70">
        <walk edges="119369423#2 119369423#3 119369427 28583613 -118119096#4 -22701046#0 -22701046#1 -22701046#2"/>
    </person>
    <person id="ped12" type="ped_pedestrian" depart="206.94">
        <walk edges="623021335#2 623021335#1 22792491#0 118990212"/>
    </person>
    <person id="ped14" type="ped_pedestrian" depart="241.43">
        <walk edges="499860008#0 499860007#1 499860007#0 1156129626#1 1156129627#1 1156129629#1 499860006#1 499860006#0 499858364#1 499858364#0 1124414474#1 1124414474#0 237563865#2 -118990212 15238486#0 -15238486#1 -15238486#2 -15238486#3 -15238486#4 -15238486#6 -15238486#7 22797042 22792489#4"/>
    </person>
    <person id="ped15" type="ped_pedestrian" depart="258.68">
        <walk edges="488336354#0 488336353 24997794#1 24997794#2 533631777#1 533631777#2 24997795#0 541933879#2 541933877#0 875774527 533630012#1 36876010 118915353 32116821#1 32116530#2"/>
    </person>
    <person id="ped16" type="ped_pedestrian" depart="275.92">
        <walk edges="131446841#3 131446847 131446840 131446842#4 131446835 131446844 61818951#2 61818951#1 61818951#0 56226086 186885713 186885712#1 335246481 925624092 1124414474#1 1124414474#0 237563865#2 -118990212 15238486#0 -15238486#1 -15238486#2 -15238486#3 -15238486#4 -15238486#6 -15238486#7 22797042 22792489#4 22792489#3 22792489#2 22792489#1 688041813"/>
    </person>
    <person id="ped17" type="ped_pedestrian" depart="293.17">
        <walk edges="119437841 119369423#2 119369423#3 119369427 28583613 118119096#3 -118119096#2 -118119096#1 -118119096#0 -1012806592#0 1012806592#2 1012806592#3 1156129622#1 335246484#1 925624091 186885714 56226087 61818954#0 61818954#1 61818954#2 131446843 131446838 131446842#1 131446840 131446847"/>
    </person>
    <person id="ped18" type="ped_pedestrian" depart="310.41">
        <walk edges="499858358#1 474758448#1 474758449#1 499858361#0 474758449#0 499858361#1 499858363 1156129632#1 1156129633#1 335246482#1 335246482#0 237563865#2 237563865#1"/>
    </person>
    <person id="ped19" type="ped_pedestrian" depart="327.66">
        <walk edges="524374653 499858354#0 499858353 925624091 186885714 56226087 61818954#0 61818954#1 61818954#2 131446843 131446838 131446842#2 131446842#3 131446835 131446844 61818951#2 61818951#1 61818951#0 56226086 186885713"/>
    </person>
    <person id="ped20" type="ped_pedestrian" depart="344.90">
        <walk edges="28583609 10058079#3 10058079#2 -154879578#0 -154879578#1 -154879578#2 499860007#0 1156129626#1 1156129627#1 1156129629#1 499860006#1 499860006#0 499858364#1 499858364#0 1124414474#1 1124414474#0 335246482#0 335246482#1 1156129633#1 1156129632#1 885108462 118795295 -118795314#1"/>
    </person>
    <person id="ped21" type="ped_pedestrian" depart="362.15">
        <walk edges="1124414474#1 499858364#0 499858364#1 499860006#0 499860006#1 1156129629#1 1156129627#1 1156129626#1 499860007#0 499860007#1 1012806592#3 1012806592#2 -1012806592#0 340498994#3 117955017 118119094#1 118119094#2"/>
    </person>
    <person id="ped22" type="ped_pedestrian" depart="379.40">
        <walk edges="-121657508#0 121657508#1 121657510#0 22797042 -15238486#7 1056191914 121620933#4 121620933#3 121620933#2 121620933#1 121620933#0 24997795#5 24997795#4 114134814#2"/>
    </person>
    <person id="ped23" type="ped_pedestrian" depart="396.64">
        <walk edges="-121807632#1 -15238486#4 -15238486#3 -15238486#2 -15238486#1 15238486#0 -118990212 237563865#2 1124414474#0 1124414474#1 925624092 335246481 186885712#1 186885713 56226086 61818951#0 61818951#1 61818951#2 131446844 131446835 131446842#3 131446842#2 131446838 131446843 61818954#2 61818954#1 1159998384#0"/>
    </person>
    <person id="ped24" type="ped_pedestrian" depart="413.89">
        <walk edges="24934952#5 -24934952#4 24934952#3 34142174#1 34142174#0 1156129620#1 1156129618#1 1156129621#1 1046385613 -24736345#1 -118119096#0 -118119096#1 -118119096#2 28583614#0 28583614#1 119437858#1 119437858#4 119437840#0 119437840#1 119437834#4 119437834#5"/>
    </person>
    <person id="ped25" type="ped_pedestrian" depart="431.13">
        <walk edges="119437836 119369423#1 119369423#2 119369423#3 119369427 28583613 -118119096#4 28583607#0 -28583609 10058079#3 10058079#2 10058079#1 10058079#0"/>
    </person>
    <person id="ped26" type="ped_pedestrian" depart="448.38">
        <walk edges="1156458385#0 1156458387 25490906#1 1156458388#1 533631777#6 118795311#0 118795314#0 -118795314#1 118795295 885108462 885108461 237563864 186885712#0 186885713 56226086 61818951#0 61818951#1 61818951#2 131446844 131446835 131446842#3 131446842#2 131446838 131446843 61818954#2 61818954#1 61818954#0 56226087"/>
    </person>
    <person id="ped27" type="ped_pedestrian" depart="465.62">
        <walk edges="24997795#1 533631777#3 533631777#4 25610853 25490993#2 25490993#3 118795311#2 118795311#1 118795314#0 -118795314#1 118795295 885108462 1156129632#1 1156129633#1 335246482#1 335246482#0 237563865#2 -118990212 22792491#0 22792491#1 22792491#2 22792491#3"/>
    </person>
    <person id="ped28" type="ped_pedestrian" depart="482.87">
        <walk edges="-24934952#3 -24934952#2 -24934952#1 533634489#0 123394155#1 499858354#1 499858354#0 1156129648#1 499858352#1 1156129648#0 1156129647#1 1156129645#1 1156129647#0 1156129645#0 524374654#0 533669351#0 25920391#4 25920391#3 25920391#2 25920391#1 32116530#0 32116530#1 32116530#2"/>
    </person>
    <person id="ped29" type="ped_pedestrian" depart="500.11">
        <walk edges="-22797043#1 22797042 -15238486#7 -15238486#6 -15238486#4 -15238486#3 -15238486#2 -15238486#1 15238486#0 -118990212 237563865#2 1124414474#0 1124414474#1 499858364#0 499858364#1 499860006#0 499860006#1 1156129629#1 1156129627#1 1156129626#1 499860007#0 499860007#1 1012806592#3 1012806592#2 -1012806592#0 -118119096#0 -118119096#1 -118119096#2 118119096#3 28583613 119369427 119369423#3 119369423#2 119369423#1 119437836 119437842"/>
    </person>
    <person id="ped30" type="ped_pedestrian" depart="517.36">
        <walk edges="885108461 237563864 186885712#0 186885713 56226086 61818951#0 61818951#1 61818951#2 131446844 131446835 131446842#3 131446842#2 131446838 131446843 61818954#2 61818954#1 61818954#0 56226087 186885714 925624091 -123433777#1 -123433777#0 24937132#1"/>
    </person>
    <person id="ped31" type="ped_pedestrian" depart="534.60">
        <walk edges="15238486#1 15238486#0 -118990212 237563865#2 1124414474#0 1124414474#1 925624092 335246481 186885712#1 186885713 56226086 61818951#0 61818951#1 61818953#3 131446845#2 131446845#1 131446845#0 27250281#1"/>
    </person>
    <person id="ped33" type="ped_pedestrian" depart="569.09">
        <walk edges="114134814#0 806821502#3 806821502#2 806821502#1 806821502#0 885108462 1156129632#1 1156129633#1 335246482#1 335246482#0 237563865#2 -118990212 15238486#0 -15238486#1 118795313 -118795300#1 -118795300#0"/>
    </person>
    <person id="ped34" type="ped_pedestrian" depart="586.34">
        <walk edges="118795297 22792491#1 22792491#0 -118990212 237563865#2 335246482#0 335246482#1 1156129633#1 1156129632#1 885108462 118795295 -118795314#1 118795314#0 118795311#0 533631777#6 1156458388#1 25490906#1 1156458387 1156458385#0"/>
    </person>
    <person id="ped35" type="ped_pedestrian" depart="603.58">
        <walk edges="10058079#1 28583604#0 -154879578#1 119701454#1 22699211#3 1012806592#3 1156129622#1 335246484#1 925624091 186885714 56226087 61818954#0 61818954#1 61818954#2 131446843 131446838 131446842#2 61818952#1"/>
    </person>
    <person id="ped36" type="ped_pedestrian" depart="620.83">
        <walk edges="532684444#0 499858355#1 499858355#2 499858355#3 499858358#2 499858358#1 474758448#1 474758449#1 499858361#0 474758449#0 499858361#1 499858363 1156129632#1 1156129633#1 335246482#1 335246482#0 237563865#2 -118990212 22792491#0 22792491#1 118795297"/>
    </person>
    <person id="ped37" type="ped_pedestrian" depart="638.07">
        <walk edges="25490552#0 4993843#1 25490993#0 25490993#1 25490993#2 25490993#3 118795311#2 118795311#1 118795314#0 -118795314#1 118795295 885108462 885108461 237563864 186885712#0 186885713 56226086 61818951#0 61818951#1 61818951#2 131446844 131446835 131446842#3 131446842#2 131446838 131446843 61818954#2 61818954#1 61818954#0 56226087 186885714 925624091 335246484#1 1156129622#1 1012806592#3 1012806592#2 -1012806592#0 -118119096#0 -118119096#1 -118119096#2 118119096#3 28583613 119369427 119369423#3 119369423#2 119369423#1 119437836 119437842 119437851"/>
    </person>
    <person id="ped39" type="ped_pedestrian" depart="672.56">
        <walk edges="1156129648#0 499858352#1 1156129648#1 499858353 499860012#0 1156129620#1 1156129618#1 1156129621#1"/>
    </person>
    <person id="ped40" type="ped_pedestrian" depart="689.81">
        <walk edges="15238486#4 -15238486#3 -15238486#2 -15238486#1 15238486#0 -118990212 237563865#2 335246482#0 335246482#1 1156129633#1 1156129632#1 499858363 499858361#1 474758449#0 499858361#0 474758449#1 474758448#1 499858358#1 499858358#2 499858355#3 499858355#2 499858355#1 499858355#0 1156129645#0 1156129647#0 1156129645#1 1156129647#1"/>
    </person>
    <person id="ped41" type="ped_pedestrian" depart="707.05">
        <walk edges="22699211#2 22699211#3 1012806592#3 1156129622#1 335246484#1 499858353 1156129648#1 499858352#1 1156129648#0 1156129647#1 1156129645#1 1156129647#0 1156129645#0 499858355#0 499858355#1 499858355#2 499858355#3 499858358#2 533630012#6 533630012#5 533630012#4 1147030651#1 1156458385#1 1156458385#0 1156458387 25490906#1 1156458388#1 533631777#5 533631777#4"/>
    </person>
    <person id="ped42" type="ped_pedestrian" depart="724.30">
        <walk edges="119437853 119437846 119369423#3 119369427 28583613 118119096#3 -118119096#2 -118119096#1 -118119096#0 -1012806592#0 1012806592#2 1012806592#3 499860007#1 499860007#0 1156129626#1 1156129627#1 1156129629#1 499860006#1 499860006#0 499858364#1 499858364#0 1124414474#1 1124414474#0 237563865#2 237563865#1 237563865#0 1056191914"/>
    </person>
    <person id="ped43" type="ped_pedestrian" depart="741.55">
        <walk edges="925624092 1124414474#1 1124414474#0 237563865#2 -118990212 15238486#0 -15238486#1 -15238486#2 -15238486#3 -15238486#4 -15238486#6 -15238486#7 22797042 22792489#4 22792489#3 126084513"/>
    </person>
    <person id="ped44" type="ped_pedestrian" depart="758.79">
        <walk edges="-121657510#2 121657510#1 121657510#0 22797042 -15238486#7 -15238486#6 -15238486#4 -15238486#3 -15238486#2 -15238486#1 15238486#0 -118990212"/>
    </person>
    <person id="ped45" type="ped_pedestrian" depart="776.04">
        <walk edges="-123394156#0 123394154 123394158 123394155#0 123394155#1 24934950#1"/>
    </person>
    <person id="ped46" type="ped_pedestrian" depart="793.28">
        <walk edges="392906401#1 392906401#0 533631777#1 533631777#2 533631777#3 533631777#4 533631777#5 1156458388#1 25490906#1 1156458387 1156458385#0 1156458385#1 1147030651#1 533630012#4 533630012#5 533630012#6 499858358#2 499858355#3 499858355#2 499858355#1 499858355#0 1156129645#0 1156129647#0 1156129645#1 1156129647#1 1156129648#0 499858352#1 1156129648#1 499858354#0 499858354#1 123394155#1 533634489#0 -24934952#1 -24934952#2 24934952#3 -24934952#4 119521767#3"/>
    </person>
    <person id="ped47" type="ped_pedestrian" depart="810.53">
        <walk edges="-119701453 22701046#3 -22701046#2 -22701046#1 -22701046#0 -118119096#4 28583613 119369427 119369423#4 119369423#5 119369423#6 119437831#1 119437843"/>
    </person>
    <person id="ped48" type="ped_pedestrian" depart="827.77">
        <walk edges="925624091 186885714 56226087 61818954#0 61818954#1 61818954#2 131446843 131446838"/>
    </person>
    <person id="ped49" type="ped_pedestrian" depart="845.02">
        <walk edges="67950951#2 -121860162#0 499858364#0 1124414474#1 1124414474#0 335246482#0 335246482#1 1156129633#1 1156129632#1 499858363 499858361#1 474758449#0 499858361#0 474758449#1 474758448#1 499858358#1 533630012#6 524374652"/>
    </person>
    <person id="ped50" type="ped_pedestrian" depart="862.26">
        <walk edges="-1156129614#0 499860012#2 499860012#1 499860012#0 499858353 1156129648#1 499858352#1 1156129648#0 1156129647#1 1156129645#1 1156129647#0 1156129645#0 524374654#0 533669351#0 25920391#4 32116473"/>
    </person>
    <person id="ped51" type="ped_pedestrian" depart="879.51">
        <walk edges="25920391#5 533669351#0 524374654#0 1156129645#0 1156129647#0 1156129645#1 1156129647#1 1156129648#0 499858352#1 1156129648#1 499858353 925624091 186885714 56226087 61818954#0 61818954#1 61818954#2 131446843 131446838 131446842#1"/>
    </person>
    <person id="ped52" type="ped_pedestrian" depart="896.75">
        <walk edges="1156129648#1 499858353 -123433777#1 24937132#2"/>
    </person>
    <person id="ped53" type="ped_pedestrian" depart="914.00">
        <walk edges="-123394156#1 -24937132#1 34142174#0 1156129620#1 1156129618#1 1156129621#1 1046385613 499860008#1 -24736347 119701454#0"/>
    </person>
    <person id="ped54" type="ped_pedestrian" depart="931.24">
        <walk edges="121653998#2 121653998#3 -121653998#4 -15238486#3 -15238486#2 -15238486#1 623021335#0"/>
    </person>
    <person id="ped55" type="ped_pedestrian" depart="948.49">
        <walk edges="532684444#0 499858355#0 1156129645#0 1156129647#0 1156129645#1 1156129647#1"/>
    </person>
    <person id="ped56" type="ped_pedestrian" depart="965.73">
        <walk edges="123394156#1 -24937132#1 34142174#0 1156129620#1 1156129618#1 1156129621#1 1046385613 -24736345#1 -118119096#0 -118119096#1 -118119096#2 118119096#3 -118119096#4 28583607#0 -28583609"/>
    </person>
    <person id="ped57" type="ped_pedestrian" depart="982.98">
        <walk edges="533668748#1 118603616 806821502#1 118795305 118795314#0 118795311#0 533631777#7 533631777#8 499858361#1 474758449#0 499858361#0 474758449#1 474758448#1 499858358#1 499858358#2 499858355#3 499858355#2 32117373#0 532683709#0"/>
    </person>
    <person id="ped58" type="ped_pedestrian" depart="1000.22">
        <walk edges="1182216838 24937132#0"/>
    </person>
    <person id="ped59" type="ped_pedestrian" depart="1017.47">
        <walk edges="22792491#3 22792491#2 22792491#1 623021335#1 -67950951#1 -67950951#2 -121860162#0 499858364#1 499860006#0 499860006#1 1156129629#1 1156129627#1 1156129626#1 499860007#0 499860007#1 1012806592#3 1012806592#2 -1012806592#0 -118119096#0 -118119096#1 -118119096#2 118119096#3 -118119096#4 -22701046#0"/>
    </person>
    <person id="ped60" type="ped_pedestrian" depart="1034.71">
        <walk edges="335246481 186885712#1 186885713 56226086 61818951#0 61818951#1 61818951#2 131446844 131446835 131446842#3"/>
    </person>
    <person id="ped61" type="ped_pedestrian" depart="1051.96">
        <walk edges="34142174#0 499860012#0 925624091 186885714 56226087 61818954#0 61818954#1 61818954#2 131446843 131446838 131446842#1 131446840"/>
    </person>
    <person id="ped62" type="ped_pedestrian" depart="1069.20">
        <walk edges="-1012806592#0 1012806592#2 1012806592#3 1156129622#1 335246484#1 925624091 186885714 56226087 61818954#0 61818954#1 61818954#2 131446843 131446838 131446842#2 131446842#3 131446835 131446844 61818951#2 61818951#1 61818951#0 56226086 186885713 186885712#0 237563864 885108461 885108462 118795295 -118795314#1 118795314#0 118795311#0"/>
    </person>
    <person id="ped63" type="ped_pedestrian" depart="1086.45">
        <walk edges="-118119096#1 -118119096#0 -1012806592#0 1012806592#2 1012806592#3 1156129622#1 335246484#1 499858353 1156129648#1 499858352#1 1156129648#0 1156129647#1 1156129645#1 1156129647#0 1156129645#0 499858355#0 499858355#1 499858355#2 499858355#3 499858358#2 533630012#6 533630012#5 533630012#4 533630012#3 533630012#2 533630012#1 875774527 541933877#0"/>
    </person>
    <person id="ped65" type="ped_pedestrian" depart="1120.94">
        <walk edges="118603639 806821502#5 806821502#4 806821502#3 806821502#2 806821502#1 806821502#0 885108462 885108461 237563864 186885712#0 186885713 56226086 61818951#0 61818951#1 61818951#2 131446844 131446835 131446842#3 131446842#2 131446838 131446843 61818954#2 61818954#1 61818954#0 56226087 186885714 925624091 335246484#1 1156129622#1 1012806592#3 1012806592#2 -1012806592#0 340498994#3 117955017 28801878#2 -119690746"/>
    </person>
    <person id="ped67" type="ped_pedestrian" depart="1155.43">
        <walk edges="-121657508#4 -121657507#0 121657507#1 22797042 -15238486#7 -121653998#0 121807635"/>
    </person>
    <person id="ped69" type="ped_pedestrian" depart="1189.92">
        <walk edges="335246483 499860007#1 499860007#0 1156129626#1 1156129627#1 1156129629#1 499860006#1 499860006#0 499858364#1 499858364#0 1124414474#1 1124414474#0 237563865#2 -118990212 15238486#0 -15238486#1 -15238486#2 -15238486#3 -15238486#4 -15238486#6 -15238486#7 22797042 121657507#1 -121657507#0 -121657508#4 -126084521#1"/>
    </person>
    <person id="ped70" type="ped_pedestrian" depart="1207.17">
        <walk edges="121761593 32116530#0 1156458386 533630012#4 1147030651#1 1156458385#1 1156458385#0 1156458387 25490906#1 1156458388#1 533631777#6 118795311#0 118795314#0 -118795314#1 118795295 885108462 885108461 237563864 186885712#0 186885713 56226086 61818951#0 61818951#1 61818951#2 131446844 131446835 131446842#3 61818952#0 131446846 131446845#3"/>
    </person>
    <person id="ped71" type="ped_pedestrian" depart="1224.41">
        <walk edges="1156129648#0 1156129647#1 1156129645#1 1156129647#0 1156129645#0 499858355#0 532684444#0 532684443#1 532684443#0"/>
    </person>
    <person id="ped72" type="ped_pedestrian" depart="1241.66">
        <walk edges="119521767#4 899609933 24934952#3 34142174#1 34142174#0 1156129620#1 1156129618#1 1156129621#1 1046385613 -24736345#1 -118119096#0 24747563 28583604#3 28583604#2 28583604#1 28583604#0 10058079#1"/>
    </person>
    <person id="ped73" type="ped_pedestrian" depart="1258.90">
        <walk edges="131446842#2 131446842#3 131446835 131446844 61818951#2 61818951#1 61818951#0 56226086 186885713 186885712#0 237563864 885108461 885108462 118795295 -118795314#1 118795314#0 118795311#0 533631777#6 1156458388#1 25490906#1 1156458387 1156458385#0 1156458385#1 1147030651#1 533630012#3 32116969#0 32116530#2"/>
    </person>
    <person id="ped74" type="ped_pedestrian" depart="1276.15">
        <walk edges="-4993843#4 4993843#4 24997794#0 24997794#1 24997794#2 533631777#1 533631777#2 24997795#0 541933879#2 541933877#0 875774527 533630012#1 36876010 118915353 32116821#1 32116530#2 32116530#1 32116530#0 25920391#1 25920391#2 32116502 118795291#1"/>
    </person>
    <person id="ped75" type="ped_pedestrian" depart="1293.39">
        <walk edges="899609933 24934952#3 -24934952#2 -24934952#1 533634489#0 123394155#1 499858354#1 499858354#0 1156129648#1 499858352#1 1156129648#0 1156129647#1 1156129645#1 1156129647#0 1156129645#0 499858355#0 499858355#1 499858355#2 499858355#3 499858358#2 499858358#1 474758448#1 474758449#1 499858361#0 474758449#0 499858361#1 533631777#8 533631777#7 118795311#0 118795311#1 118795311#2 25490993#3 25490993#2 25490993#1 24997795#2"/>
    </person>
    <person id="ped76" type="ped_pedestrian" depart="1310.64">
        <walk edges="119701454#2 -154879578#2 499860007#0 1156129626#1 1156129627#1 1156129629#1 499860006#1 499860006#0 499858364#1 499858364#0 1124414474#1 1124414474#0 237563865#2 -118990212 15238486#0 -15238486#1 -15238486#2 -15238486#3 -15238486#4 -15238486#6 -15238486#7 22797042 121657510#0 121657510#1 -121657510#2 126084521#1"/>
    </person>
    <person id="ped78" type="ped_pedestrian" depart="1345.13">
        <walk edges="119369423#1 119369423#2 119369423#3 119369427 28583613 -118119096#4 22701046#0"/>
    </person>
    <person id="ped79" type="ped_pedestrian" depart="1362.37">
        <walk edges="114134814#0 806821502#4 24997795#5 121620933#0 121620933#1 121620933#2 121620933#3 121620933#4 1056191914"/>
    </person>
    <person id="ped80" type="ped_pedestrian" depart="1379.62">
        <walk edges="-121653998#1 -121653998#2 -121807632#0 -121807632#1 -15238486#4 -15238486#3 -15238486#2 -15238486#1 15238486#0 -118990212 237563865#2 335246482#0 335246482#1 1156129633#1 1156129632#1 499858363 499858361#1 474758449#0 499858361#0 474758449#1 474758448#1 499858358#1 499858358#2 499858355#3 499858355#2 499858355#1 499858355#0 1156129645#0 1156129647#0 1156129645#1 1156129647#1 1156129648#0 499858352#1 1156129648#1 499858354#0 499858354#1 123394155#1 533634489#0 -24934952#1 24934952#2"/>
    </person>
    <person id="ped81" type="ped_pedestrian" depart="1396.86">
        <walk edges="114134814#0 806821502#3 806821502#2 806821502#1 118795305 118795314#0 118795311#0 533631777#7 533631777#8 499858361#1 474758449#0 499858361#0 474758449#1 474758448#1 499858358#1 499858358#2 499858355#3 499858355#2 499858355#1 499858355#0 1156129645#0 1156129647#0 1156129645#1 1156129647#1 1156129648#0 499858352#1 1156129648#1 499858354#0 499858354#1 123394155#1 533634489#0"/>
    </person>
    <person id="ped82" type="ped_pedestrian" depart="1414.11">
        <walk edges="524374652 533630012#6 499858358#1 474758448#1 474758449#1 499858361#0 474758449#0 499858361#1 499858363 1156129632#1 1156129633#1 335246482#1 335246482#0 237563865#2 -118990212 15238486#0 -15238486#1 -15238486#2 -15238486#3 -15238486#4 -121807632#1 -121807632#0 -121653998#2 -121653998#1"/>
    </person>
    <person id="ped83" type="ped_pedestrian" depart="1431.35">
        <walk edges="1147030651#1 1156458385#1 1156458385#0 1156458387 25490906#1 1156458388#1 1147030650#0 25490993#3 25490993#2 25490993#1 25490993#0"/>
    </person>
    <person id="ped85" type="ped_pedestrian" depart="1465.85">
        <walk edges="56226087 186885714 925624091 499858353 1156129648#1 499858352#1 1156129648#0 1156129647#1 1156129645#1 1156129647#0 1156129645#0 524374654#0 533669351#0 533669351#1 172321798#2"/>
    </person>
    <person id="ped86" type="ped_pedestrian" depart="1483.09">
        <walk edges="121657510#2 121657510#1 121657510#0 22797042 -15238486#7 -15238486#6 -15238486#4 -15238486#3 -15238486#2 -15238486#1 15238486#0 -118990212 237563865#2 1124414474#0 1124414474#1 925624092 335246481 186885712#1 186885713 56226086 61818951#0 61818951#1 61818951#2 131446844 131446835 131446842#3 131446842#2 131446838 131446843 61818954#2 61818954#1 61818954#0 56226087 186885714 925624091 -123433777#1 -123433777#0 -24937132#1 -24937132#0 -123434730#1 -123434730#0 359234589#1"/>
    </person>
    <person id="ped89" type="ped_pedestrian" depart="1534.83">
        <walk edges="119521767#4 533634489#3 533634489#2 533634489#1 533634489#0 123394155#1 499858354#1 499858354#0 1156129648#1 499858352#1 1156129648#0 1156129647#1 1156129645#1 1156129647#0 1156129645#0 499858355#0 499858355#1 499858355#2 499858355#3 499858358#2 499858358#1 474758448#1 474758449#1 499858361#0 474758449#0 499858361#1 499858363 1156129632#1 1156129633#1 335246482#1 335246482#0 237563865#2 -118990212 15238486#0 -15238486#1 -15238486#2 -15238486#3 -15238486#4 -15238486#6 -15238486#7 22797042 121657507#1 -121657507#0 121657508#4"/>
    </person>
    <person id="ped90" type="ped_pedestrian" depart="1552.07">
        <walk edges="32116530#2 32116969#0 533630012#3 1147030651#1 1156458385#1 1156458385#0 1156458387 25490906#1 1156458388#1 1147030650#0 25490993#3"/>
    </person>
    <person id="ped91" type="ped_pedestrian" depart="1569.32">
        <walk edges="875774525 533631777#3 24997795#1 24997795#2 24997795#3 24997795#4 24997795#5 121620933#0 121620933#1 121620933#2 121620933#3 121620933#4 1056191914 -15238486#6 -121807632#1 -121807632#0"/>
    </person>
    <person id="ped92" type="ped_pedestrian" depart="1586.56">
        <walk edges="119437855 119369423#9 119369423#10"/>
    </person>
    <person id="ped93" type="ped_pedestrian" depart="1603.81">
        <walk edges="524374653 499858354#0 499858353 1156129624#1 1156129623#0"/>
    </person>
    <person id="ped95" type="ped_pedestrian" depart="1638.30">
        <walk edges="119521767#3 -24934952#4 24934952#3 -24934952#2 -24934952#1 533634489#0 123394155#1 24934950#0 -123433777#1 925624091 186885714 56226087 61818954#0 1159998384#1"/>
    </person>
    <person id="ped96" type="ped_pedestrian" depart="1655.54">
        <walk edges="1156129623#0 1156129624#1 499858353 1156129648#1 499858352#1 1156129648#0 1156129647#1 1156129645#1 1156129647#0 1156129645#0 499858355#0 499858355#1 499858355#2 499858355#3 499858358#2 533630012#6 533630012#5 533630012#4 1147030651#1 1156458385#1 1156458385#0 1156458387 25490906#1 1156458388#1 533631777#5 533631777#4 533631777#3 533631777#2 533631777#1 24997794#2 24997794#1 488336353 488336354#0 533526249 535225500#0 535225500#1 535225500#2 535225500#3"/>
    </person>
    <person id="ped97" type="ped_pedestrian" depart="1672.79">