<?xml version="1.0" encoding="UTF-8"?>

<!-- generated on 2024-12-20 18:45:19.046609 by osmWebWizard.py v1_21_0+0000-d7b3b481c43
<configuration>
    <net-file value="C:\Programming\BYOP\2024-12-20-18-45-06\osm.net.xml.gz"/>
    <output-trip-file value="C:\Programming\BYOP\2024-12-20-18-45-06\osm.motorcycle.trips.xml"/>
    <route-file value="C:\Programming\BYOP\2024-12-20-18-45-06\osm.motorcycle.rou.xml"/>
    <prefix value="motorcycle"/>
    <trip-attributes value="departLane=&quot;best&quot;"/>
    <fringe-start-attributes value="departSpeed=&quot;max&quot;"/>
    <vehicle-class value="motorcycle"/>
    <fringe-factor value="2"/>
    <vclass value="motorcycle"/>
    <via-edge-types value="highway.motorway,highway.motorway_link,highway.trunk_link,highway.primary_link,highway.secondary_link,highway.tertiary_link"/>
    <max-distance value="1200.0"/>
    <remove-loops value="True"/>
    <validate value="True"/>
    <insertion-density value="4.0"/>
</configuration>
-->

<!-- generated on 2024-12-20 18:45:18 by Eclipse SUMO duarouter Version 1.21.0
<duarouterConfiguration xmlns:xsi="http://www.w3.org/2001/XMLSchema-instance" xsi:noNamespaceSchemaLocation="http://sumo.dlr.de/xsd/duarouterConfiguration.xsd">

    <input>
        <net-file value="C:\Programming\BYOP\2024-12-20-18-45-06\osm.net.xml.gz"/>
        <route-files value="C:\Programming\BYOP\2024-12-20-18-45-06\osm.motorcycle.trips.xml"/>
    </input>

    <output>
        <output-file value="C:\Programming\BYOP\2024-12-20-18-45-06\osm.motorcycle.trips.xml.tmp"/>
        <alternatives-output value="NUL"/>
        <write-trips value="true"/>
    </output>

    <processing>
        <remove-loops value="true"/>
    </processing>

    <time>
        <begin value="0.0"/>
        <end value="3600.0"/>
    </time>

    <report>
        <no-warnings value="true"/>
        <ignore-errors value="true"/>
        <no-step-log value="true"/>
    </report>

</duarouterConfiguration>
-->

<routes xmlns:xsi="http://www.w3.org/2001/XMLSchema-instance" xsi:noNamespaceSchemaLocation="http://sumo.dlr.de/xsd/routes_file.xsd">
    <vType id="motorcycle_motorcycle" vClass="motorcycle"/>
    <trip id="motorcycle2" type="motorcycle_motorcycle" depart="181.82" departLane="best" departSpeed="max" from="433870860#0" to="376980963#1"/>
    <trip id="motorcycle5" type="motorcycle_motorcycle" depart="454.55" departLane="best" from="206170866" to="206170874#3"/>
    <trip id="motorcycle6" type="motorcycle_motorcycle" depart="545.46" departLane="best" departSpeed="max" from="156341117#0" to="206170865#5"/>
    <trip id="motorcycle12" type="motorcycle_motorcycle" depart="1090.91" departLane="best" departSpeed="max" from="66514435" to="206170869"/>
    <trip id="motorcycle13" type="motorcycle_motorcycle" depart="1181.82" departLane="best" from="156341117#2" to="156341122#0"/>
    <trip id="motorcycle16" type="motorcycle_motorcycle" depart="1454.55" departLane="best" from="376039458#4" to="544399004"/>
    <trip id="motorcycle17" type="motorcycle_motorcycle" depart="1545.46" departLane="best" departSpeed="max" from="340498991#0" to="340498991#1"/>
    <trip id="motorcycle21" type="motorcycle_motorcycle" depart="1909.10" departLane="best" from="206170867" to="206170868#1"/>
    <trip id="motorcycle23" type="motorcycle_motorcycle" depart="2090.92" departLane="best" from="156341117#2" to="206170868#1"/>
    <trip id="motorcycle31" type="motorcycle_motorcycle" depart="2818.20" departLane="best" from="376039458#5" to="376980963#2"/>
    <trip id="motorcycle38" type="motorcycle_motorcycle" depart="3454.56" departLane="best" from="544399004" to="206170874#2"/>
</routes>
