<?xml version="1.0" encoding="UTF-8"?>

<!-- generated on 2025-01-17 13:33:01 by Eclipse SUMO netconvert Version 1.21.0
<netconvertConfiguration xmlns:xsi="http://www.w3.org/2001/XMLSchema-instance" xsi:noNamespaceSchemaLocation="http://sumo.dlr.de/xsd/netconvertConfiguration.xsd">

    <input>
        <type-files value="${SUMO_HOME}\data\typemap\osmNetconvert.typ.xml"/>
        <osm-files value="osm_bbox.osm.xml.gz"/>
    </input>

    <output>
        <output-file value="osm.net.xml.gz"/>
        <output.street-names value="true"/>
        <output.original-names value="true"/>
    </output>

    <projection>
        <proj.utm value="true"/>
    </projection>

    <processing>
        <geometry.remove value="true"/>
        <roundabouts.guess value="true"/>
    </processing>

    <tls_building>
        <tls.discard-simple value="true"/>
        <tls.join value="true"/>
        <tls.guess-signals value="true"/>
        <tls.default-type value="actuated"/>
    </tls_building>

    <ramp_guessing>
        <ramps.guess value="true"/>
    </ramp_guessing>

    <junctions>
        <junctions.join value="true"/>
        <junctions.corner-detail value="5"/>
    </junctions>

</netconvertConfiguration>
-->

<net version="1.20" junctionCornerDetail="5" limitTurnSpeed="5.50" xmlns:xsi="http://www.w3.org/2001/XMLSchema-instance" xsi:noNamespaceSchemaLocation="http://sumo.dlr.de/xsd/net_file.xsd">

    <location netOffset="-575184.45,-4144355.73" convBoundary="0.00,0.00,700.50,327.93" origBoundary="-122.150029,37.442951,-122.142126,37.445943" projParameter="+proj=utm +zone=10 +ellps=WGS84 +datum=WGS84 +units=m +no_defs"/>

    <type id="highway.cycleway" priority="1" numLanes="1" speed="5.56" allow="bicycle" oneway="0" width="2.00"/>
    <type id="highway.footway" priority="1" numLanes="1" speed="2.78" allow="pedestrian" oneway="1" width="2.00"/>
    <type id="highway.residential" priority="3" numLanes="1" speed="13.89" disallow="tram rail_urban rail rail_electric rail_fast ship container cable_car subway aircraft wheelchair scooter drone" oneway="0"/>
    <type id="highway.secondary" priority="11" numLanes="1" speed="27.78" disallow="tram rail_urban rail rail_electric rail_fast ship container cable_car subway aircraft wheelchair scooter drone" oneway="0"/>
    <type id="highway.service" priority="1" numLanes="1" speed="5.56" allow="pedestrian delivery bicycle" oneway="0"/>

    <edge id=":11639324034_0" function="internal">
        <lane id=":11639324034_0_0" index="0" allow="pedestrian bicycle" speed="5.38" length="3.68" width="2.00" shape="571.51,156.66 570.60,157.05 569.88,157.60 569.37,158.30 569.05,159.16"/>
    </edge>
    <edge id=":11639324034_1" function="internal">
        <lane id=":11639324034_1_0" index="0" allow="pedestrian bicycle" speed="2.95" length="3.10" width="2.00" shape="571.51,156.66 570.55,156.71 570.02,156.45 569.91,155.87 570.22,154.97"/>
    </edge>
    <edge id=":11639324034_2" function="internal">
        <lane id=":11639324034_2_0" index="0" allow="pedestrian bicycle" speed="5.56" length="4.77" width="2.00" shape="567.18,158.35 567.60,157.17 568.25,156.21 569.12,155.48 570.22,154.97"/>
    </edge>
    <edge id=":11639324034_3" function="internal">
        <lane id=":11639324034_3_0" index="0" allow="pedestrian bicycle" speed="2.90" length="2.97" width="2.00" shape="567.18,158.35 567.95,157.86 568.52,157.82 568.89,158.26 569.05,159.16"/>
    </edge>
    <edge id=":11639324056_0" function="internal">
        <lane id=":11639324056_0_0" index="0" allow="pedestrian bicycle" speed="5.56" length="5.03" width="2.00" shape="537.01,113.08 532.11,114.20"/>
    </edge>
    <edge id=":11639324056_1" function="internal">
        <lane id=":11639324056_1_0" index="0" allow="pedestrian bicycle" speed="2.89" length="2.39" width="2.00" shape="537.01,113.08 536.17,112.76 535.81,112.33 535.94,111.79 536.20,111.52"/>
    </edge>
    <edge id=":11639324056_4" function="internal">
        <lane id=":11639324056_4_0" index="0" allow="pedestrian bicycle" speed="2.89" length="0.53" width="2.00" shape="536.20,111.52 536.56,111.13"/>
    </edge>
    <edge id=":11639324056_2" function="internal">
        <lane id=":11639324056_2_0" index="0" allow="pedestrian bicycle" speed="5.56" length="5.02" width="2.00" shape="531.67,112.25 536.56,111.13"/>
    </edge>
    <edge id=":11639324056_3" function="internal">
        <lane id=":11639324056_3_0" index="0" allow="pedestrian bicycle" speed="2.89" length="2.38" width="2.00" shape="531.67,112.25 532.51,112.57 532.86,113.00 532.73,113.55 532.48,113.81"/>
    </edge>
    <edge id=":11639324056_5" function="internal">
        <lane id=":11639324056_5_0" index="0" allow="pedestrian bicycle" speed="2.89" length="0.54" width="2.00" shape="532.48,113.81 532.11,114.20"/>
    </edge>
    <edge id=":11639325070_0" function="internal">
        <lane id=":11639325070_0_0" index="0" allow="pedestrian bicycle" speed="5.56" length="6.93" width="2.00" shape="648.81,126.92 642.51,129.82"/>
    </edge>
    <edge id=":11639325070_1" function="internal">
        <lane id=":11639325070_1_0" index="0" allow="pedestrian bicycle" speed="5.56" length="7.26" width="2.00" shape="648.81,126.92 646.98,127.42 645.36,127.21 643.93,126.29 642.71,124.67"/>
    </edge>
    <edge id=":11639325070_2" function="internal">
        <lane id=":11639325070_2_0" index="0" allow="pedestrian bicycle" speed="2.89" length="2.92" width="2.00" shape="648.81,126.92 647.92,126.77 647.49,126.41 647.52,125.85 648.00,125.09"/>
    </edge>
    <edge id=":11639325070_3" function="internal">
        <lane id=":11639325070_3_0" index="0" allow="pedestrian bicycle" speed="4.70" length="4.26" width="2.00" shape="644.45,123.68 645.18,124.67 646.01,125.23 646.95,125.37 648.00,125.09"/>
    </edge>
    <edge id=":11639325070_4" function="internal">
        <lane id=":11639325070_4_0" index="0" allow="pedestrian bicycle" speed="5.56" length="7.46" width="2.00" shape="644.45,123.68 645.20,125.61 645.13,127.27 644.23,128.67 642.51,129.82"/>
    </edge>
    <edge id=":11639325070_5" function="internal">
        <lane id=":11639325070_5_0" index="0" allow="pedestrian bicycle" speed="2.89" length="2.92" width="2.00" shape="644.45,123.68 644.39,124.58 644.07,125.05 643.52,125.07 642.71,124.67"/>
    </edge>
    <edge id=":11639325070_6" function="internal">
        <lane id=":11639325070_6_0" index="0" allow="pedestrian bicycle" speed="4.36" length="4.07" width="2.00" shape="641.65,128.01 642.59,127.39 643.08,126.62 643.12,125.72 642.71,124.67"/>
    </edge>
    <edge id=":11639325070_7" function="internal">
        <lane id=":11639325070_7_0" index="0" allow="pedestrian bicycle" speed="5.56" length="6.99" width="2.00" shape="641.65,128.01 648.00,125.09"/>
    </edge>
    <edge id=":11639325070_8" function="internal">
        <lane id=":11639325070_8_0" index="0" allow="pedestrian bicycle" speed="2.89" length="2.92" width="2.00" shape="641.65,128.01 642.55,128.14 642.99,128.49 642.97,129.04 642.51,129.82"/>
    </edge>
    <edge id=":11639325076_0" function="internal">
        <lane id=":11639325076_0_0" index="0" allow="pedestrian bicycle" speed="4.76" length="4.37" width="2.00" shape="635.84,92.54 635.65,91.28 635.18,90.35 634.41,89.76 633.36,89.50"/>
    </edge>
    <edge id=":11639325076_1" function="internal">
        <lane id=":11639325076_1_0" index="0" allow="pedestrian bicycle" speed="5.56" length="7.63" width="2.00" shape="635.84,92.54 636.08,90.43 636.95,88.99 638.45,88.22 640.58,88.12"/>
    </edge>
    <edge id=":11639325076_2" function="internal">
        <lane id=":11639325076_2_0" index="0" allow="pedestrian bicycle" speed="2.89" length="2.92" width="2.00" shape="635.84,92.54 636.32,91.78 636.81,91.52 637.32,91.75 637.84,92.49"/>
    </edge>
    <edge id=":11639325076_3" function="internal">
        <lane id=":11639325076_3_0" index="0" allow="pedestrian bicycle" speed="4.30" length="4.10" width="2.00" shape="640.38,90.11 639.24,90.16 638.44,90.58 637.97,91.35 637.84,92.49"/>
    </edge>
    <edge id=":11639325076_4" function="internal">
        <lane id=":11639325076_4_0" index="0" allow="pedestrian bicycle" speed="5.56" length="7.05" width="2.00" shape="640.38,90.11 633.36,89.50"/>
    </edge>
    <edge id=":11639325076_5" function="internal">
        <lane id=":11639325076_5_0" index="0" allow="pedestrian bicycle" speed="2.89" length="2.92" width="2.00" shape="640.38,90.11 639.69,89.54 639.49,89.02 639.78,88.54 640.58,88.12"/>
    </edge>
    <edge id=":11639325076_6" function="internal">
        <lane id=":11639325076_6_0" index="0" allow="pedestrian bicycle" speed="5.56" length="7.10" width="2.00" shape="633.51,87.51 640.58,88.12"/>
    </edge>
    <edge id=":11639325076_7" function="internal">
        <lane id=":11639325076_7_0" index="0" allow="pedestrian bicycle" speed="5.56" length="7.36" width="2.00" shape="633.51,87.51 635.35,87.93 636.69,88.91 637.52,90.42 637.84,92.49"/>
    </edge>
    <edge id=":11639325076_8" function="internal">
        <lane id=":11639325076_8_0" index="0" allow="pedestrian bicycle" speed="2.89" length="2.92" width="2.00" shape="633.51,87.51 634.22,88.06 634.43,88.58 634.14,89.06 633.36,89.50"/>
    </edge>
    <edge id=":1318475796_0" function="internal">
        <lane id=":1318475796_0_0" index="0" disallow="tram rail_urban rail rail_electric rail_fast ship container cable_car subway aircraft wheelchair scooter drone" speed="3.65" length="4.67" shape="54.09,326.95 54.19,328.39 53.81,329.20 52.93,329.37 51.56,328.91"/>
    </edge>
    <edge id=":1351395929_0" function="internal">
        <lane id=":1351395929_0_0" index="0" disallow="tram rail_urban rail rail_electric rail_fast ship container cable_car subway aircraft wheelchair scooter drone" speed="3.65" length="4.67" shape="454.31,309.90 453.52,311.11 452.72,311.52 451.92,311.12 451.11,309.93"/>
    </edge>
    <edge id=":1466250716_0" function="internal">
        <lane id=":1466250716_0_0" index="0" disallow="tram rail_urban rail rail_electric rail_fast ship container cable_car subway aircraft wheelchair scooter drone" speed="3.65" length="4.67" shape="332.38,4.97 332.28,3.53 332.66,2.72 333.54,2.55 334.91,3.01"/>
    </edge>
    <edge id=":1466250718_0" function="internal">
        <lane id=":1466250718_0_0" index="0" disallow="tram rail_urban rail rail_electric rail_fast ship container cable_car subway aircraft wheelchair scooter drone" speed="3.65" length="4.67" shape="343.73,4.27 345.17,4.16 345.97,4.55 346.15,5.42 345.70,6.79"/>
    </edge>
    <edge id=":1466250728_0" function="internal">
        <lane id=":1466250728_0_0" index="0" disallow="tram rail_urban rail rail_electric rail_fast ship container cable_car subway aircraft wheelchair scooter drone" speed="3.65" length="4.67" shape="183.50,22.40 184.93,22.23 185.76,22.58 185.97,23.45 185.57,24.84"/>
    </edge>
    <edge id=":2519507704_0" function="internal">
        <lane id=":2519507704_0_0" index="0" allow="pedestrian bicycle" speed="4.82" length="4.73" width="2.00" shape="482.31,118.25 480.90,118.43 479.88,118.93 479.27,119.75 479.05,120.88"/>
    </edge>
    <edge id=":2519507704_1" function="internal">
        <lane id=":2519507704_1_0" index="0" allow="pedestrian bicycle" speed="5.56" length="9.53" width="2.00" shape="482.31,118.25 472.78,118.28"/>
    </edge>
    <edge id=":2519507704_2" function="internal">
        <lane id=":2519507704_2_0" index="0" allow="pedestrian bicycle" speed="5.56" length="8.92" width="2.00" shape="482.31,118.25 479.50,118.00 477.52,117.16 476.35,115.71 475.99,113.66"/>
    </edge>
    <edge id=":2519507704_3" function="internal">
        <lane id=":2519507704_3_0" index="0" allow="pedestrian bicycle" speed="2.89" length="2.92" width="2.00" shape="482.31,118.25 481.55,117.76 481.29,117.26 481.53,116.76 482.27,116.25"/>
    </edge>
    <edge id=":2519507704_4" function="internal">
        <lane id=":2519507704_4_0" index="0" allow="pedestrian bicycle" speed="4.79" length="4.56" width="2.00" shape="479.19,113.74 479.36,114.86 479.93,115.65 480.90,116.11 482.27,116.25"/>
    </edge>
    <edge id=":2519507704_5" function="internal">
        <lane id=":2519507704_5_0" index="0" allow="pedestrian delivery bicycle" speed="5.56" length="7.15" shape="479.19,113.74 479.05,120.88"/>
    </edge>
    <edge id=":2519507704_6" function="internal">
        <lane id=":2519507704_6_0" index="0" allow="pedestrian bicycle" speed="5.56" length="8.88" width="2.00" shape="479.19,113.74 478.75,115.75 477.53,117.18 475.54,118.02 472.78,118.28"/>
    </edge>
    <edge id=":2519507704_7" function="internal">
        <lane id=":2519507704_7_0" index="0" allow="pedestrian delivery bicycle" speed="3.65" length="4.67" shape="479.19,113.74 478.36,114.92 477.55,115.30 476.76,114.88 475.99,113.66"/>
    </edge>
    <edge id=":2519507704_8" function="internal">
        <lane id=":2519507704_8_0" index="0" allow="pedestrian bicycle" speed="4.76" length="4.69" width="2.00" shape="472.81,116.28 474.18,116.13 475.16,115.64 475.77,114.82 475.99,113.66"/>
    </edge>
    <edge id=":2519507704_9" function="internal">
        <lane id=":2519507704_9_0" index="0" allow="pedestrian bicycle" speed="5.56" length="9.47" width="2.00" shape="472.81,116.28 482.27,116.25"/>
    </edge>
    <edge id=":2519507704_10" function="internal">
        <lane id=":2519507704_10_0" index="0" allow="pedestrian bicycle" speed="5.56" length="8.78" width="2.00" shape="472.81,116.28 475.56,116.60 477.52,117.47 478.68,118.90 479.05,120.88"/>
    </edge>
    <edge id=":2519507704_11" function="internal">
        <lane id=":2519507704_11_0" index="0" allow="pedestrian bicycle" speed="2.89" length="2.92" width="2.00" shape="472.81,116.28 473.55,116.79 473.79,117.29 473.54,117.79 472.78,118.28"/>
    </edge>
    <edge id=":2519507704_12" function="internal">
        <lane id=":2519507704_12_0" index="0" allow="pedestrian bicycle" speed="4.83" length="4.53" width="2.00" shape="475.85,120.83 475.67,119.73 475.10,118.94 474.14,118.45 472.78,118.28"/>
    </edge>
    <edge id=":2519507704_13" function="internal">
        <lane id=":2519507704_13_0" index="0" allow="pedestrian delivery bicycle" speed="5.56" length="7.17" shape="475.85,120.83 475.99,113.66"/>
    </edge>
    <edge id=":2519507704_14" function="internal">
        <lane id=":2519507704_14_0" index="0" allow="pedestrian bicycle" speed="5.56" length="8.86" width="2.00" shape="475.85,120.83 476.28,118.87 477.49,117.45 479.49,116.58 482.27,116.25"/>
    </edge>
    <edge id=":2519507704_15" function="internal">
        <lane id=":2519507704_15_0" index="0" allow="pedestrian delivery bicycle" speed="3.65" length="4.67" shape="475.85,120.83 476.67,119.64 477.47,119.25 478.27,119.67 479.05,120.88"/>
    </edge>
    <edge id=":2519507716_0" function="internal">
        <lane id=":2519507716_0_0" index="0" allow="pedestrian delivery bicycle" speed="3.65" length="4.67" shape="435.11,121.69 433.91,120.89 433.51,120.09 433.92,119.29 435.12,118.49"/>
    </edge>
    <edge id=":314075749_0" function="internal">
        <lane id=":314075749_0_0" index="0" allow="pedestrian bicycle" speed="4.48" length="4.01" width="2.00" shape="551.91,108.12 551.20,107.27 550.40,106.84 549.49,106.83 548.48,107.23"/>
    </edge>
    <edge id=":314075749_1" function="internal">
        <lane id=":314075749_1_0" index="0" allow="pedestrian bicycle" speed="5.56" length="7.23" width="2.00" shape="551.91,108.12 551.12,106.32 551.10,104.69 551.85,103.23 553.37,101.94"/>
    </edge>
    <edge id=":314075749_2" function="internal">
        <lane id=":314075749_2_0" index="0" allow="pedestrian bicycle" speed="2.89" length="2.92" width="2.00" shape="551.91,108.12 551.95,107.22 552.25,106.75 552.81,106.71 553.63,107.09"/>
    </edge>
    <edge id=":314075749_3" function="internal">
        <lane id=":314075749_3_0" index="0" allow="pedestrian bicycle" speed="4.45" length="4.04" width="2.00" shape="554.44,103.63 553.59,104.35 553.17,105.17 553.18,106.08 553.63,107.09"/>
    </edge>
    <edge id=":314075749_4" function="internal">
        <lane id=":314075749_4_0" index="0" allow="pedestrian bicycle" speed="5.56" length="6.96" width="2.00" shape="554.44,103.63 548.48,107.23"/>
    </edge>
    <edge id=":314075749_5" function="internal">
        <lane id=":314075749_5_0" index="0" allow="pedestrian bicycle" speed="2.89" length="2.92" width="2.00" shape="554.44,103.63 553.54,103.61 553.06,103.32 553.01,102.77 553.37,101.94"/>
    </edge>
    <edge id=":314075749_6" function="internal">
        <lane id=":314075749_6_0" index="0" allow="pedestrian bicycle" speed="5.56" length="6.88" width="2.00" shape="547.48,105.50 553.37,101.94"/>
    </edge>
    <edge id=":314075749_7" function="internal">
        <lane id=":314075749_7_0" index="0" allow="pedestrian bicycle" speed="5.56" length="7.18" width="2.00" shape="547.48,105.50 549.29,104.78 550.91,104.80 552.36,105.57 553.63,107.09"/>
    </edge>
    <edge id=":314075749_8" function="internal">
        <lane id=":314075749_8_0" index="0" allow="pedestrian bicycle" speed="2.89" length="2.92" width="2.00" shape="547.48,105.50 548.38,105.56 548.85,105.87 548.88,106.42 548.48,107.23"/>
    </edge>
    <edge id=":314076353_0" function="internal">
        <lane id=":314076353_0_0" index="0" allow="pedestrian bicycle" speed="4.17" length="4.18" width="2.00" shape="664.16,123.09 663.81,121.95 663.19,121.30 662.31,121.14 661.16,121.46"/>
    </edge>
    <edge id=":314076353_1" function="internal">
        <lane id=":314076353_1_0" index="0" allow="pedestrian bicycle" speed="5.56" length="7.46" width="2.00" shape="664.16,123.09 664.04,120.90 664.44,119.10 665.36,117.71 666.80,116.71"/>
    </edge>
    <edge id=":314076353_2" function="internal">
        <lane id=":314076353_2_0" index="0" allow="pedestrian bicycle" speed="2.89" length="2.92" width="2.00" shape="664.16,123.09 664.54,122.27 664.99,121.94 665.53,122.11 666.14,122.77"/>
    </edge>
    <edge id=":314076353_3" function="internal">
        <lane id=":314076353_3_0" index="0" allow="pedestrian bicycle" speed="5.35" length="4.86" width="2.00" shape="667.65,118.52 666.79,119.15 666.25,120.06 666.03,121.27 666.14,122.77"/>
    </edge>
    <edge id=":314076353_4" function="internal">
        <lane id=":314076353_4_0" index="0" allow="pedestrian bicycle" speed="5.56" length="7.12" width="2.00" shape="667.65,118.52 661.16,121.46"/>
    </edge>
    <edge id=":314076353_5" function="internal">
        <lane id=":314076353_5_0" index="0" allow="pedestrian bicycle" speed="2.89" length="2.92" width="2.00" shape="667.65,118.52 666.76,118.39 666.32,118.04 666.33,117.48 666.80,116.71"/>
    </edge>
    <edge id=":314076353_6" function="internal">
        <lane id=":314076353_6_0" index="0" allow="pedestrian bicycle" speed="5.56" length="7.08" width="2.00" shape="660.35,119.63 666.80,116.71"/>
    </edge>
    <edge id=":314076353_7" function="internal">
        <lane id=":314076353_7_0" index="0" allow="pedestrian bicycle" speed="5.56" length="8.05" width="2.00" shape="660.35,119.63 662.56,119.01 664.26,119.33 665.45,120.58 666.14,122.77"/>
    </edge>
    <edge id=":314076353_8" function="internal">
        <lane id=":314076353_8_0" index="0" allow="pedestrian bicycle" speed="2.89" length="2.92" width="2.00" shape="660.35,119.63 661.24,119.79 661.67,120.14 661.64,120.70 661.16,121.46"/>
    </edge>
    <edge id=":4410281252_0" function="internal">
        <lane id=":4410281252_0_0" index="0" allow="pedestrian delivery bicycle" speed="5.02" length="5.02" shape="235.85,208.62 234.88,207.64 233.83,207.22 232.71,207.35 231.51,208.03"/>
    </edge>
    <edge id=":4410281252_1" function="internal">
        <lane id=":4410281252_1_0" index="0" disallow="tram rail_urban rail rail_electric rail_fast ship container cable_car subway aircraft wheelchair scooter drone" speed="11.18" length="6.20" shape="236.40,204.23 231.51,208.03"/>
    </edge>
    <edge id=":4410281252_2" function="internal">
        <lane id=":4410281252_2_0" index="0" disallow="tram rail_urban rail rail_electric rail_fast ship container cable_car subway aircraft wheelchair scooter drone" speed="11.18" length="6.20" shape="229.54,205.50 234.44,201.70"/>
    </edge>
    <edge id=":4410281253_0" function="internal">
        <lane id=":4410281253_0_0" index="0" disallow="tram rail_urban rail rail_electric rail_fast ship container cable_car subway aircraft wheelchair scooter drone" speed="11.18" length="6.20" shape="287.89,270.40 283.00,274.20"/>
    </edge>
    <edge id=":4410281253_1" function="internal">
        <lane id=":4410281253_1_0" index="0" allow="pedestrian delivery bicycle" speed="6.04" length="7.86" shape="287.89,270.40 286.52,270.95 285.02,270.61 283.37,269.37 281.59,267.24"/>
    </edge>
    <edge id=":4410281253_2" function="internal">
        <lane id=":4410281253_2_0" index="0" allow="pedestrian delivery bicycle" speed="5.13" length="5.05" shape="281.03,271.67 281.97,270.70 282.37,269.63 282.24,268.48 281.59,267.24"/>
    </edge>
    <edge id=":4410281253_3" function="internal">
        <lane id=":4410281253_3_0" index="0" disallow="tram rail_urban rail rail_electric rail_fast ship container cable_car subway aircraft wheelchair scooter drone" speed="11.18" length="6.20" shape="281.03,271.67 285.93,267.87"/>
    </edge>
    <edge id=":462517224_0" function="internal">
        <lane id=":462517224_0_0" index="0" disallow="tram rail_urban rail rail_electric rail_fast ship container cable_car subway aircraft wheelchair scooter drone" speed="6.47" length="9.03" shape="121.06,189.05 119.30,187.30 117.41,186.55 115.39,186.80 113.24,188.04"/>
    </edge>
    <edge id=":462517224_1" function="internal">
        <lane id=":462517224_1_0" index="0" disallow="tram rail_urban rail rail_electric rail_fast ship container cable_car subway aircraft wheelchair scooter drone" speed="11.18" length="14.43" shape="121.06,189.05 112.21,177.66"/>
    </edge>
    <edge id=":462517224_2" function="internal">
        <lane id=":462517224_2_0" index="0" disallow="tram rail_urban rail rail_electric rail_fast ship container cable_car subway aircraft wheelchair scooter drone" speed="7.84" length="13.54" shape="121.06,189.05 119.78,186.06 119.66,182.53 120.64,179.15 122.64,176.61"/>
    </edge>
    <edge id=":462517224_3" function="internal">
        <lane id=":462517224_3_0" index="0" disallow="tram rail_urban rail rail_electric rail_fast ship container cable_car subway aircraft wheelchair scooter drone" speed="3.65" length="4.67" shape="121.06,189.05 120.98,187.61 121.37,186.81 122.25,186.64 123.61,187.12"/>
    </edge>
    <edge id=":462517224_4" function="internal">
        <lane id=":462517224_4_0" index="0" disallow="tram rail_urban rail rail_electric rail_fast ship container cable_car subway aircraft wheelchair scooter drone" speed="6.56" length="9.18" shape="124.61,179.13 122.87,180.90 122.13,182.83 122.38,184.90 123.61,187.12"/>
    </edge>
    <edge id=":462517224_5" function="internal">
        <lane id=":462517224_5_0" index="0" disallow="tram rail_urban rail rail_electric rail_fast ship container cable_car subway aircraft wheelchair scooter drone" speed="11.18" length="14.45" shape="124.61,179.13 113.24,188.04"/>
    </edge>
    <edge id=":462517224_6" function="internal">
        <lane id=":462517224_6_0" index="0" disallow="tram rail_urban rail rail_electric rail_fast ship container cable_car subway aircraft wheelchair scooter drone" speed="8.10" length="14.12" shape="124.61,179.13 121.27,181.00 118.08,181.37 115.06,180.26 112.21,177.66"/>
    </edge>
    <edge id=":462517224_7" function="internal">
        <lane id=":462517224_7_0" index="0" disallow="tram rail_urban rail rail_electric rail_fast ship container cable_car subway aircraft wheelchair scooter drone" speed="3.65" length="4.67" shape="124.61,179.13 123.17,179.24 122.37,178.85 122.19,177.98 122.64,176.61"/>
    </edge>
    <edge id=":462517224_8" function="internal">
        <lane id=":462517224_8_0" index="0" disallow="tram rail_urban rail rail_electric rail_fast ship container cable_car subway aircraft wheelchair scooter drone" speed="6.59" length="9.01" shape="114.72,175.68 116.54,177.34 118.47,178.04 120.50,177.80 122.64,176.61"/>
    </edge>
    <edge id=":462517224_9" function="internal">
        <lane id=":462517224_9_0" index="0" disallow="tram rail_urban rail rail_electric rail_fast ship container cable_car subway aircraft wheelchair scooter drone" speed="11.18" length="14.49" shape="114.72,175.68 123.61,187.12"/>
    </edge>
    <edge id=":462517224_10" function="internal">
        <lane id=":462517224_10_0" index="0" disallow="tram rail_urban rail rail_electric rail_fast ship container cable_car subway aircraft wheelchair scooter drone" speed="7.74" length="13.47" shape="114.72,175.68 116.07,178.60 116.20,182.09 115.22,185.47 113.24,188.04"/>
    </edge>
    <edge id=":462517224_11" function="internal">
        <lane id=":462517224_11_0" index="0" disallow="tram rail_urban rail rail_electric rail_fast ship container cable_car subway aircraft wheelchair scooter drone" speed="3.65" length="4.67" shape="114.72,175.68 114.84,177.11 114.46,177.92 113.58,178.10 112.21,177.66"/>
    </edge>
    <edge id=":462517224_12" function="internal">
        <lane id=":462517224_12_0" index="0" disallow="tram rail_urban rail rail_electric rail_fast ship container cable_car subway aircraft wheelchair scooter drone" speed="6.47" length="9.09" shape="111.26,185.52 113.02,183.70 113.76,181.78 113.49,179.77 112.21,177.66"/>
    </edge>
    <edge id=":462517224_13" function="internal">
        <lane id=":462517224_13_0" index="0" disallow="tram rail_urban rail rail_electric rail_fast ship container cable_car subway aircraft wheelchair scooter drone" speed="11.18" length="14.46" shape="111.26,185.52 122.64,176.61"/>
    </edge>
    <edge id=":462517224_14" function="internal">
        <lane id=":462517224_14_0" index="0" disallow="tram rail_urban rail rail_electric rail_fast ship container cable_car subway aircraft wheelchair scooter drone" speed="7.97" length="14.26" shape="111.26,185.52 114.65,183.56 117.84,183.18 120.83,184.36 123.61,187.12"/>
    </edge>
    <edge id=":462517224_15" function="internal">
        <lane id=":462517224_15_0" index="0" disallow="tram rail_urban rail rail_electric rail_fast ship container cable_car subway aircraft wheelchair scooter drone" speed="3.65" length="4.67" shape="111.26,185.52 112.70,185.41 113.51,185.79 113.69,186.67 113.24,188.04"/>
    </edge>
    <edge id=":4863345726_0" function="internal">
        <lane id=":4863345726_0_0" index="0" allow="pedestrian delivery bicycle" speed="4.94" length="5.12" shape="498.25,4.10 497.32,3.02 496.29,2.54 495.16,2.66 493.92,3.37"/>
    </edge>
    <edge id=":4863345726_1" function="internal">
        <lane id=":4863345726_1_0" index="0" disallow="tram rail_urban rail rail_electric rail_fast ship container cable_car subway aircraft wheelchair scooter drone" speed="3.65" length="4.67" shape="491.94,0.86 493.38,0.75 494.19,1.13 494.37,2.00 493.92,3.37"/>
    </edge>
    <edge id=":5572192907_0" function="internal">
        <lane id=":5572192907_0_0" index="0" allow="pedestrian bicycle" speed="4.58" length="4.01" width="2.00" shape="515.94,120.04 515.66,118.98 515.12,118.24 514.32,117.80 513.25,117.66"/>
    </edge>
    <edge id=":5572192907_1" function="internal">
        <lane id=":5572192907_1_0" index="0" allow="pedestrian bicycle" speed="5.56" length="7.03" width="2.00" shape="515.94,120.04 515.98,118.13 516.61,116.65 517.82,115.60 519.62,114.96"/>
    </edge>
    <edge id=":5572192907_2" function="internal">
        <lane id=":5572192907_2_0" index="0" allow="pedestrian bicycle" speed="2.89" length="2.92" width="2.00" shape="515.94,120.04 516.35,119.24 516.82,118.93 517.34,119.12 517.93,119.81"/>
    </edge>
    <edge id=":5572192907_3" function="internal">
        <lane id=":5572192907_3_0" index="0" allow="pedestrian bicycle" speed="4.54" length="3.99" width="2.00" shape="520.02,116.92 519.00,117.28 518.31,117.88 517.95,118.72 517.93,119.81"/>
    </edge>
    <edge id=":5572192907_4" function="internal">
        <lane id=":5572192907_4_0" index="0" allow="pedestrian bicycle" speed="5.56" length="6.83" width="2.00" shape="520.02,116.92 518.03,117.31 516.66,117.52 515.27,117.62 513.25,117.66"/>
    </edge>
    <edge id=":5572192907_5" function="internal">
        <lane id=":5572192907_5_0" index="0" allow="pedestrian bicycle" speed="2.89" length="2.92" width="2.00" shape="520.02,116.92 519.18,116.58 518.84,116.14 518.99,115.60 519.62,114.96"/>
    </edge>
    <edge id=":5572192907_6" function="internal">
        <lane id=":5572192907_6_0" index="0" allow="pedestrian bicycle" speed="5.56" length="6.47" width="2.00" shape="513.21,115.67 515.13,115.62 516.44,115.53 517.74,115.33 519.62,114.96"/>
    </edge>
    <edge id=":5572192907_7" function="internal">
        <lane id=":5572192907_7_0" index="0" allow="pedestrian bicycle" speed="5.56" length="7.01" width="2.00" shape="513.21,115.67 515.09,115.89 516.50,116.66 517.44,117.97 517.93,119.81"/>
    </edge>
    <edge id=":5572192907_8" function="internal">
        <lane id=":5572192907_8_0" index="0" allow="pedestrian bicycle" speed="2.89" length="2.92" width="2.00" shape="513.21,115.67 513.97,116.15 514.23,116.65 513.99,117.15 513.25,117.66"/>
    </edge>
    <edge id=":6135433630_0" function="internal">
        <lane id=":6135433630_0_0" index="0" disallow="tram rail_urban rail rail_electric rail_fast ship container cable_car subway aircraft wheelchair scooter drone" speed="3.65" length="4.67" shape="-1.27,260.67 -1.37,259.23 -0.97,258.43 -0.10,258.26 1.27,258.72"/>
    </edge>
    <edge id=":6414533943_0" function="internal">
        <lane id=":6414533943_0_0" index="0" disallow="tram rail_urban rail rail_electric rail_fast ship container cable_car subway aircraft wheelchair scooter drone" speed="3.65" length="4.67" shape="169.94,25.37 169.83,23.93 170.22,23.13 171.09,22.95 172.46,23.41"/>