<?xml version='1.0' encoding='UTF-8'?>
<routes xmlns:xsi="http://www.w3.org/2001/XMLSchema-instance" xsi:noNamespaceSchemaLocation="http://sumo.dlr.de/xsd/routes_file.xsd">
    <vType id="veh_passenger" vClass="passenger" speedDev="0.1" />
    <vType id="bus_bus" vClass="bus" speedDev="0.1" />
    <vType id="motorcycle_motorcycle" vClass="motorcycle" speedDev="0.1" />

    

    
    <flow id="flow_1" type="veh_passenger" begin="0" end="200000" period="93.53999999999999">
        <route edges="699466498#0 8956059#0 8956059#1 8956059#2 -8956240#0 52015139#0 52015139#2 52015139#3" />
    </flow>
    <flow id="flow_2" type="veh_passenger" begin="62.36" end="200000" period="93.53999999999999">
        <route edges="-8956240#2 -8956240#1 -8956240#0 52015139#0 52015139#2 52015139#3 -8959754#2 -8959754#1 -117887168#0" />
    </flow>
    <flow id="flow_3" type="veh_passenger" begin="124.72" end="200000" period="93.53999999999999">
        <route edges="-699466068#5 -8956240#1 -8956240#0 52015139#0 52015139#2 52015139#3 52015139#4 1027596041 8955035#0 8955035#1 8955035#2 -8970323#0" />
    </flow>
    <flow id="flow_4" type="bus_bus" begin="187.08" end="200000" period="280.62">
        <route edges="-699466498#1 8956059#0 8956059#1 8956059#2 -8956240#0 52015139#0 52015139#2 52015139#3 52015139#4 1027596041 8955035#0 8955035#1 8955035#2 8955035#3" />
    </flow>
    <flow id="flow_5" type="motorcycle_motorcycle" begin="187.08" end="200000" period="280.62">
        <route edges="-699466068#5 -8956240#1 -8956240#0 52015139#0 52015139#2 52015139#3 52015139#4 1027596041 8955035#0 8955035#1 8955035#2 8970323#1 8970323#2 -685948069" />
    </flow>
    <flow id="flow_6" type="veh_passenger" begin="187.08" end="200000" period="93.53999999999999">
        <route edges="-8956059#6 8942481#1 -417316813#4 -417316813#3 -417316813#2 -417316813#1 52015139#0 52015139#2 52015139#3 52015139#4 1027596041 1027596042#0 1027596042#1 1027596042#2 685947368#0 685947368#1 685947369#2 685948070#1 -685948068" />
    </flow>
    <flow id="flow_7" type="veh_passenger" begin="249.45" end="200000" period="93.53999999999999">
        <route edges="-8955035#0 -1027596041 -52015139#4 -52015139#3 -52015139#2 -52015139#1 685267199#0 8956240#1 8956240#2" />
    </flow>
    <flow id="flow_8" type="veh_passenger" begin="311.81" end="200000" period="93.53999999999999">
        <route edges="-685948070#0 -685947369#0 -685947368#0 -1027596042#2 -1027596042#1 -1027596042#0 -1027596041 -52015139#4 -52015139#3 -52015139#2 -52015139#1 417316813#1 417316813#2 417316813#3 417316813#4 -8942481#1" />
    </flow>
    <flow id="flow_9" type="bus_bus" begin="374.17" end="200000" period="280.62">
        <route edges="-685948068 -8970323#1 -8955035#2 -8955035#1 -8955035#0 -1027596041 -52015139#4 -8959754#2 -8959754#1 117887168#1 -38922410#2 -8956059#0 -699466498#0" />
    </flow>
    <flow id="flow_10" type="veh_passenger" begin="436.53" end="200000" period="93.53999999999999">
        <route edges="-8955035#0 -1027596041 -52015139#4 -8959754#2 -8959754#1 117887168#1 -38922410#2 8956059#1" />
    </flow>
    <flow id="flow_11" type="veh_passenger" begin="498.89" end="200000" period="93.53999999999999">
        <route edges="-8955035#3 -8955035#2 -8955035#1 -8955035#0 -1027596041 -52015139#4 -52015139#3 -52015139#2 -52015139#1 685267199#0 8956240#1 -699466068#2 -699466068#1 -699466068#0" />
    </flow>
    <flow id="flow_12" type="veh_passenger" begin="561.25" end="200000" period="93.53999999999999">
        <route edges="8956059#2 -8956240#0 52015139#0 52015139#2 52015139#3 52015139#4 1027596041 -8935314" />
    </flow>
    <flow id="flow_13" type="veh_passenger" begin="623.62" end="200000" period="93.53999999999999">
        <route edges="-8955035#0 -1027596041 -52015139#4 -52015139#3 -52015139#2 -52015139#1 685267199#0 8956240#1 -699466068#2 -699466068#1 -699466068#0" />
    </flow>
    <flow id="flow_14" type="veh_passenger" begin="685.98" end="200000" period="93.53999999999999">
        <route edges="435715052#0 435715052#1 698769622#0 417316813#1 417316813#2 417316813#3 417316813#4 -8942481#1 8956059#6" />
    </flow>
    <flow id="flow_15" type="motorcycle_motorcycle" begin="748.34" end="200000" period="280.62">
        <route edges="-8956240#1 -8956240#0 52015139#0 52015139#2 52015139#3 52015139#4 1027596041 8955035#0 8955035#1 8962988#0 8962988#1 -685947369#0 -685947368#0 -1027596042#2" />
    </flow>
    <flow id="flow_16" type="veh_passenger" begin="810.70" end="200000" period="93.53999999999999">
        <route edges="8935314 -1027596041 -52015139#4 -52015139#3 -52015139#2 -52015139#1 -698769622#0 -435715052#1 -435715052#0" />
    </flow>
    <flow id="flow_17" type="veh_passenger" begin="873.06" end="200000" period="93.53999999999999">
        <route edges="-8955035#0 -1027596041 -52015139#4 -52015139#3 -52015139#2 -52015139#1 417316813#1 417316813#2 417316813#3 417316813#4 417316813#6 417316813#7" />
    </flow>
    <flow id="flow_18" type="veh_passenger" begin="935.42" end="200000" period="93.53999999999999">
        <route edges="-685948070#0 -685947369#0 -685947368#0 -1027596042#2 -1027596042#1 -1027596042#0 -1027596041 -52015139#4 -52015139#3 -52015139#2 -52015139#1 417316813#1 417316813#2 417316813#3 417316813#4 417316813#6 417316813#7" />
    </flow>
    <flow id="flow_19" type="bus_bus" begin="935.42" end="200000" period="280.62">
        <route edges="-8955035#3 -8955035#2 -8955035#1 -8955035#0 -1027596041 -52015139#4 -8959754#2 -8959754#1 117887168#1 -38922410#2 -8956059#0 -699466498#0" />
    </flow>
    <flow id="flow_20" type="veh_passenger" begin="997.79" end="200000" period="93.53999999999999">
        <route edges="-8955035#3 -8955035#2 -8955035#1 -8955035#0 -1027596041 -52015139#4 -52015139#3 -52015139#2 -52015139#1 685267199#0 8956240#1 8956240#2" />
    </flow>
    <flow id="flow_21" type="veh_passenger" begin="1060.15" end="200000" period="93.53999999999999">
        <route edges="699466498#0 8956059#0 8956059#1 8956059#2 -8956240#0 52015139#0 52015139#2 52015139#3 52015139#4 1027596041" />
    </flow>
    <flow id="flow_22" type="bus_bus" begin="1122.51" end="200000" period="280.62">
        <route edges="-699466498#1 8956059#0 8956059#1 8956059#2 -8956240#0 52015139#0 52015139#2 52015139#3 52015139#4 1027596041 1027596042#0 1027596042#1 1027596042#2 685947368#0 685947368#1 685947369#2" />
    </flow>
    <flow id="flow_23" type="motorcycle_motorcycle" begin="1122.51" end="200000" period="280.62">
        <route edges="-1027596042#1 -1027596042#0 -1027596041 -52015139#4 -52015139#3 -52015139#2 -52015139#1 417316813#1 417316813#2 417316813#3 417316813#4 417316813#6 417316813#7" />
    </flow>
    <flow id="flow_24" type="veh_passenger" begin="1184.87" end="200000" period="93.53999999999999">
        <route edges="-1027596042#1 -1027596042#0 -1027596041 -52015139#4 -52015139#3 -52015139#2 -52015139#1 685267199#0 8956240#1 8956240#2" />
    </flow>
    <flow id="flow_25" type="veh_passenger" begin="1247.23" end="200000" period="93.53999999999999">
        <route edges="8956059#5 8942481#1 -417316813#4 -417316813#3 -417316813#2 -417316813#1 52015139#0 52015139#2 52015139#3 52015139#4 1027596041 8955035#0 8955035#1 8955035#2 8955035#3" />
    </flow>
    <flow id="flow_27" type="veh_passenger" begin="1371.96" end="200000" period="93.53999999999999">
        <route edges="-8955035#0 -1027596041 -52015139#4 -8959754#2 -8959754#1 117887168#1 -38922410#2 8956059#1" />
    </flow>
    <flow id="flow_28" type="veh_passenger" begin="1434.32" end="200000" period="93.53999999999999">
        <route edges="-8956240#2 -8956240#1 -8956240#0 52015139#0 52015139#2 52015139#3 52015139#4 1027596041 1027596042#0 1027596042#1 1027596042#2 685947368#0 685947368#1 685947369#2 685948070#1 -685948068" />
    </flow>
    <flow id="flow_29" type="bus_bus" begin="1496.68" end="200000" period="280.62">
        <route edges="8970323#1 8970323#2 -685948069 -685948070#0 -685947369#0 -685947368#0 -1027596042#2 -1027596042#1 -1027596042#0 -1027596041 -52015139#4 -8959754#2 -8959754#1 117887168#1 -38922410#2 -8956059#0 -699466498#0" />
    </flow>
    <flow id="flow_30" type="motorcycle_motorcycle" begin="1496.68" end="200000" period="280.62">
        <route edges="-685948070#0 -685947369#0 -685947368#0 -1027596042#2 -1027596042#1 -1027596042#0 -1027596041 -52015139#4 -52015139#3 -52015139#2 -52015139#1 685267199#0 -8956059#2 -8956059#1 38922410#2" />
    </flow>
    <flow id="flow_31" type="veh_passenger" begin="1559.04" end="200000" period="93.53999999999999">
        <route edges="8959754#2 52015139#4 1027596041 8955035#0 8955035#1 8955035#2 -8970323#0" />
    </flow>
    <flow id="flow_32" type="veh_passenger" begin="1621.40" end="200000" period="93.53999999999999">
        <route edges="-699466498#1 8956059#0 8956059#1 8956059#2 -8956240#0 52015139#0 52015139#2 52015139#3 52015139#4 1027596041 8955035#0 8955035#1 8955035#2 8970323#1 8970323#2 -685948069" />
    </flow>
    <flow id="flow_33" type="bus_bus" begin="1683.76" end="200000" period="280.62">
        <route edges="699466068#1 699466068#2 -8956240#1 -8956240#0 52015139#0 52015139#2 52015139#3 52015139#4 1027596041 8955035#0 8955035#1 8955035#2 -8970323#0" />
    </flow>
    <flow id="flow_34" type="motorcycle_motorcycle" begin="1683.76" end="200000" period="280.62">
        <route edges="8942481#0 8942481#1 -417316813#4 -417316813#3 -417316813#2 -417316813#1 52015139#0 52015139#2 52015139#3 52015139#4 1027596041" />
    </flow>
    <flow id="flow_35" type="veh_passenger" begin="1746.13" end="200000" period="93.53999999999999">
        <route edges="1027596042#1 1027596042#2 685947368#0 685947368#1 -685947367 -8962988#0 -8955035#1 -8955035#0 -1027596041 -52015139#4 -8959754#2 -8959754#1 117887168#1 -38922410#2 -8956059#0 699466498#1" />
    </flow>
    <flow id="flow_36" type="veh_passenger" begin="1808.49" end="200000" period="93.53999999999999">
        <route edges="8942481#0 8942481#1 -417316813#4 -417316813#3 -417316813#2 -417316813#1 52015139#0 52015139#2 52015139#3 52015139#4 1027596041 1027596042#0 1027596042#1 1027596042#2 685947368#0 685947368#1 -685947367" />
    </flow>
    <flow id="flow_37" type="bus_bus" begin="1870.85" end="200000" period="280.62">
        <route edges="699466498#0 8956059#0 8956059#1 8956059#2 -8956240#0 52015139#0 52015139#2 52015139#3 52015139#4 1027596041 8955035#0 8955035#1 8955035#2 8955035#3" />
    </flow>
    <flow id="flow_38" type="motorcycle_motorcycle" begin="1870.85" end="200000" period="280.62">
        <route edges="8935314 -1027596041 -52015139#4" />
    </flow>
    <flow id="flow_39" type="veh_passenger" begin="1933.21" end="200000" period="93.53999999999999">
        <route edges="8935314 -1027596041 -52015139#4 -52015139#3 -52015139#2 -52015139#1 -698769622#0 -435715052#1 -435715052#0" />
    </flow>
    <flow id="flow_40" type="veh_passenger" begin="1995.57" end="200000" period="93.53999999999999">
        <route edges="-8956240#2 -8956240#1 -8956240#0 52015139#0 52015139#2 52015139#3 52015139#4 1027596041 -8935314" />
    </flow>
    <flow id="flow_41" type="veh_passenger" begin="2057.93" end="200000" period="93.53999999999999">
        <route edges="8970323#0 -8955035#2 -8955035#1 -8955035#0 -1027596041 -52015139#4 -52015139#3 -52015139#2 -52015139#1 -698769622#0 -435715052#1" />
    </flow>
    <flow id="flow_42" type="bus_bus" begin="2120.30" end="200000" period="280.62">
        <route edges="8970323#1 8970323#2 -685948069 -685948070#0 -685947369#0 -685947368#0 -1027596042#2 -1027596042#1 -1027596042#0 -1027596041 -52015139#4 -8959754#2 -8959754#1 117887168#1 -38922410#2 -8956059#0 -699466498#0" />
    </flow>
    <flow id="flow_43" type="motorcycle_motorcycle" begin="2120.30" end="200000" period="280.62">
        <route edges="8962988#1 -685947369#0 -685947368#0 -1027596042#2 -1027596042#1 -1027596042#0 -8935314" />
    </flow>
    <flow id="flow_44" type="veh_passenger" begin="2182.66" end="200000" period="93.53999999999999">
        <route edges="117887168#0 8959754#1 8959754#2 -52015139#3 -52015139#2 -52015139#1 417316813#1 417316813#2 417316813#3 417316813#4 -8942481#1 8956059#6" />
    </flow>
    <flow id="flow_45" type="veh_passenger" begin="2245.02" end="200000" period="93.53999999999999">
        <route edges="435715052#0 435715052#1 698769622#0 417316813#1 417316813#2 417316813#3 417316813#4 417316813#6 417316813#7" />
    </flow>
    <flow id="flow_46" type="bus_bus" begin="2245.02" end="200000" period="280.62">
        <route edges="-699466498#1 8956059#0 8956059#1 8956059#2 -8956240#0 52015139#0 52015139#2 52015139#3 52015139#4 1027596041 1027596042#0 1027596042#1 1027596042#2 685947368#0 685947368#1 685947369#2" />
    </flow>
    <flow id="flow_47" type="motorcycle_motorcycle" begin="2245.02" end="200000" period="280.62">
        <route edges="8962988#1 -685947369#0 -685947368#0 -1027596042#2 -1027596042#1 -1027596042#0 -8935314" />
    </flow>
    <flow id="flow_48" type="veh_passenger" begin="2307.38" end="200000" period="93.53999999999999">
        <route edges="-8956240#2 -8956240#1 -8956240#0 52015139#0 52015139#2 52015139#3 -8959754#2 -8959754#1 -117887168#0" />
    </flow>
    <flow id="flow_49" type="veh_passenger" begin="2369.74" end="200000" period="93.53999999999999">
        <route edges="-8956240#0 52015139#0 52015139#2 52015139#3 52015139#4 1027596041 8955035#0 8955035#1 8962988#0 8962988#1" />
    </flow>
    <flow id="flow_50" type="veh_passenger" begin="2432.10" end="200000" period="93.53999999999999">
        <route edges="-8955035#0 -1027596041 -52015139#4 -8959754#2 -8959754#1 117887168#1 -38922410#2 -8956059#0 699466498#1" />
    </flow>
    <flow id="flow_51" type="bus_bus" begin="2432.10" end="200000" period="280.62">
        <route edges="-685948070#0 -685947369#0 -685947368#0 -1027596042#2 -1027596042#1 -1027596042#0 -1027596041 -52015139#4 -8959754#2 -8959754#1 117887168#1 -38922410#2 -8956059#0 -699466498#0" />
    </flow>
    <flow id="flow_52" type="motorcycle_motorcycle" begin="2432.10" end="200000" period="280.62">
        <route edges="8935314 1027596042#0 1027596042#1 1027596042#2 685947368#0 685947368#1 685947369#2" />
    </flow>
    <flow id="flow_53" type="veh_passenger" begin="2494.47" end="200000" period="93.53999999999999">
        <route edges="-417316813#3 -417316813#2 -417316813#1 52015139#0 52015139#2 52015139#3 52015139#4 1027596041 1027596042#0 1027596042#1 1027596042#2 685947368#0 685947368#1 685947369#2 685948070#1" />
    </flow>
    <flow id="flow_54" type="veh_passenger" begin="2556.83" end="200000" period="93.53999999999999">
        <route edges="-685948068 -8970323#1 -8955035#2 -8955035#1 -8955035#0 -1027596041 -52015139#4 -8959754#2 -8959754#1 117887168#1 -38922410#2 -8956059#0 -699466498#0" />
    </flow>
    <flow id="flow_55" type="veh_passenger" begin="2619.19" end="200000" period="93.53999999999999">
        <route edges="8970323#0 -8955035#2 -8955035#1 -8955035#0 -1027596041 -52015139#4 -52015139#3 -52015139#2 -52015139#1 685267199#0 8956240#1 -699466068#2 -699466068#1 -699466068#0" />
    </flow>
    <flow id="flow_56" type="veh_passenger" begin="2681.55" end="200000" period="93.53999999999999">
        <route edges="8970323#2 -685948069 -685948070#0 -685947369#0 -685947368#0 -1027596042#2 -1027596042#1 -1027596042#0 -1027596041 -52015139#4 -52015139#3 -52015139#2 -52015139#1 417316813#1 417316813#2 417316813#3 417316813#4 417316813#6 417316813#7" />
    </flow>
    <flow id="flow_57" type="bus_bus" begin="2743.91" end="200000" period="280.62">
        <route edges="8970323#0 -8955035#2 -8955035#1 -8955035#0 -1027596041 -52015139#4 -52015139#3 -52015139#2 -52015139#1 685267199#0 8956240#1 -699466068#2 -699466068#1 -699466068#0" />
    </flow>
    <flow id="flow_58" type="motorcycle_motorcycle" begin="2743.91" end="200000" period="280.62">
        <route edges="8935314 -1027596041 -52015139#4 1027596042#0 1027596042#1" />
    </flow>
    <flow id="flow_59" type="veh_passenger" begin="2806.27" end="200000" period="93.53999999999999">
        <route edges="435715052#0 435715052#1 698769622#0 417316813#1 417316813#2 417316813#3" />
    </flow>
    <flow id="flow_60" type="veh_passenger" begin="2868.64" end="200000" period="93.53999999999999">
        <route edges="8959754#2 52015139#4 1027596041 8955035#0 8955035#1 8955035#2 -8970323#0" />
    </flow>
    <flow id="flow_61" type="veh_passenger" begin="2931.00" end="200000" period="93.53999999999999">
        <route edges="8956059#5 8942481#1 -417316813#4 -417316813#3 -417316813#2 -417316813#1 52015139#0 52015139#2 52015139#3 52015139#4 1027596041 1027596042#0 1027596042#1 1027596042#2 685947368#0 685947368#1 685947369#2 685948070#1 -685948068" />
    </flow>
    <flow id="flow_62" type="bus_bus" begin="2993.36" end="200000" period="280.62">
        <route edges="-8955035#2 -8955035#1 -8955035#0 -1027596041 -52015139#4 -8959754#2 -8959754#1 117887168#1 -38922410#2 -8956059#0 -699466498#0" />
    </flow>
    <flow id="flow_63" type="motorcycle_motorcycle" begin="2993.36" end="200000" period="280.62">
        <route edges="117887168#1 435715052#1 698769622#0 52015139#0 52015139#2 52015139#3 52015139#4 1027596041 8955035#0 8955035#1 8962988#0 8962988#1" />
    </flow>
    <flow id="flow_64" type="veh_passenger" begin="3055.72" end="200000" period="93.53999999999999">
        <route edges="-8955035#3 -8955035#2 -8955035#1 -8955035#0 -1027596041 -52015139#4 -52015139#3 -52015139#2 -52015139#1 685267199#0 8956240#1 699466068#5" />
    </flow>
    <flow id="flow_65" type="veh_passenger" begin="3118.08" end="200000" period="93.53999999999999">
        <route edges="-417316813#3 -417316813#2 -417316813#1 52015139#0 52015139#2 52015139#3 52015139#4 1027596041 1027596042#0 1027596042#1 1027596042#2 685947368#0 685947368#1 685947369#2 685948070#1 -685948068" />
    </flow>
    <flow id="flow_66" type="bus_bus" begin="3180.44" end="200000" period="280.62">
        <route edges="38922410#0 699466068#1 699466068#2 -8956240#1 -8956240#0 52015139#0 52015139#2 52015139#3 52015139#4 1027596041 8955035#0 8955035#1 8955035#2 -8970323#0" />
    </flow>
    <flow id="flow_67" type="motorcycle_motorcycle" begin="3180.44" end="200000" period="280.62">
        <route edges="-8956059#5 -8956240#0 52015139#0 52015139#2 52015139#3 52015139#4 1027596041 1027596042#0 1027596042#1 1027596042#2" />
    </flow>
    <flow id="flow_68" type="veh_passenger" begin="3180.44" end="200000" period="93.53999999999999">
        <route edges="-8955035#0 -1027596041 -52015139#4 -52015139#3 -52015139#2 -52015139#1 685267199#0 8956240#1 8956240#2" />
    </flow>
    <flow id="flow_69" type="veh_passenger" begin="3242.81" end="200000" period="93.53999999999999">
        <route edges="435715052#1 698769622#0 52015139#0 52015139#2 52015139#3 52015139#4 1027596041 8955035#0 8955035#1 8955035#2 8970323#1" />
    </flow>
    <flow id="flow_70" type="veh_passenger" begin="3305.17" end="200000" period="93.53999999999999">
        <route edges="8942481#0 -8956059#5 -8956059#2 -8956059#1 -8956059#0 -699466498#0" />
    </flow>
    <flow id="flow_71" type="bus_bus" begin="3367.53" end="200000" period="280.62">
        <route edges="-699466498#1 8956059#0 8956059#1 8956059#2 -8956240#0 52015139#0 52015139#2 52015139#3 52015139#4 1027596041 8955035#0 8955035#1 8955035#2 8955035#3" />
    </flow>
    <flow id="flow_72" type="motorcycle_motorcycle" begin="3367.53" end="200000" period="280.62">
        <route edges="8942481#1 -417316813#4 -417316813#3" />
    </flow>
    <flow id="flow_73" type="veh_passenger" begin="3367.53" end="200000" period="93.53999999999999">
        <route edges="685947369#2 685948070#1 -685948068 -8970323#1 -8955035#2 -8955035#1 -8955035#0 -1027596041 -52015139#4 -8959754#2 -8959754#1 117887168#1 -38922410#2 -8956059#0 -699466498#1" />
    </flow>
    <flow id="flow_74" type="veh_passenger" begin="3429.89" end="200000" period="93.53999999999999">
        <route edges="699466068#1 699466068#2 -8956240#1 -8956240#0 52015139#0 52015139#2 52015139#3 52015139#4 1027596041 8955035#0 8955035#1 8962988#0 8962988#1 -685947369#0" />
    </flow>
    <flow id="flow_75" type="veh_passenger" begin="3492.25" end="200000" period="93.53999999999999">
        <route edges="117887168#0 8959754#1 8959754#2 -52015139#3 -52015139#2 -52015139#1 417316813#1 417316813#2 417316813#3 417316813#4 -8942481#1 8956059#6" />
    </flow>
    <flow id="flow_76" type="bus_bus" begin="3554.61" end="200000" period="280.62">
        <route edges="8970323#1 8970323#2 -685948069 -685948070#0 -685947369#0 -685947368#0 -1027596042#2 -1027596042#1 -1027596042#0 -1027596041 -52015139#4 -8959754#2 -8959754#1 117887168#1 -38922410#2 -8956059#0 -699466498#0" />
    </flow>
    <flow id="flow_77" type="motorcycle_motorcycle" begin="3554.61" end="200000" period="280.62">
        <route edges="-8955035#2 -8955035#1 -8955035#0 -1027596041 -52015139#4 -52015139#3 -52015139#2 -52015139#1 685267199#0 8956240#1 -699466068#2 -699466068#1 38922410#1" />
    </flow>
    <flow id="flow_78" type="veh_passenger" begin="3554.61" end="200000" period="93.53999999999999">
        <route edges="-1027596041 -52015139#4 -52015139#3 -52015139#2 -52015139#1 685267199#0 8956240#1 699466068#5" />
    </flow>
    <flow id="flow_79" type="veh_passenger" begin="3618.04" end="200000" period="93.53999999999999">
        <route edges="8935314 -1027596041 -52015139#4 -52015139#3 -52015139#2 -52015139#1 -698769622#0 -435715052#1 -435715052#0" />
    </flow>
    <flow id="flow_80" type="veh_passenger" begin="3680.40" end="200000" period="93.53999999999999">
        <route edges="8942481#0 8942481#1 -417316813#4 -417316813#3 -417316813#2 -417316813#1 52015139#0 52015139#2 52015139#3 52015139#4 1027596041 1027596042#0 1027596042#1 1027596042#2 685947368#0 685947368#1 -685947367" />
    </flow>
    <flow id="flow_81" type="bus_bus" begin="3741.76" end="200000" period="280.62">
        <route edges="8970323#0 -8955035#2 -8955035#1 -8955035#0 -1027596041 -52015139#4 -52015139#3 -52015139#2 -52015139#1 685267199#0 8956240#1 -699466068#2 -699466068#1 -699466068#0" />
    </flow>
    <flow id="flow_82" type="motorcycle_motorcycle" begin="3741.76" end="200000" period="280.62">
        <route edges="8935314 1027596042#0 1027596042#1 1027596042#2 685947368#0 685947368#1 -685947367" />
    </flow>
    <flow id="flow_83" type="veh_passenger" begin="3804.12" end="200000" period="93.53999999999999">
        <route edges="8942481#0 8942481#1 -417316813#4 -417316813#3 -417316813#2 -417316813#1 52015139#0 52015139#2 52015139#3 52015139#4 1027596041 1027596042#0 1027596042#1 1027596042#2 685947368#0 685947368#1 -685947367" />
    </flow>
    <flow id="flow_84" type="veh_passenger" begin="3866.48" end="200000" period="93.53999999999999">
        <route edges="685948070#1 -685948068 -8970323#1 -8955035#2 -8955035#1 -8955035#0 -1027596041 -52015139#4 -8959754#2 -8959754#1 117887168#1 -38922410#2 -8956059#0 -699466498#0" />
    </flow>
    <flow id="flow_85" type="bus_bus" begin="3928.84" end="200000" period="280.62">
        <route edges="-8955035#2 -8955035#1 -8955035#0 -1027596041 -52015139#4 -8959754#2 -8959754#1 117887168#1 -38922410#2 -8956059#0 -699466498#0" />
    </flow>
    <flow id="flow_86" type="motorcycle_motorcycle" begin="3928.84" end="200000" period="280.62">
        <route edges="117887168#1 435715052#1 698769622#0 52015139#0 52015139#2 52015139#3 52015139#4 1027596041 8955035#0 8955035#1 8962988#0 8962988#1" />
    </flow>
    <flow id="flow_87" type="veh_passenger" begin="3991.20" end="200000" period="93.53999999999999">
        <route edges="-8955035#3 -8955035#2 -8955035#1 -8955035#0 -1027596041 -52015139#4 -52015139#3 -52015139#2 -52015139#1 685267199#0 8956240#1 8956240#2" />
    </flow>
    <flow id="flow_88" type="veh_passenger" begin="4053.56" end="200000" period="93.53999999999999">
        <route edges="-417316813#3 -417316813#2 -417316813#1 52015139#0 52015139#2 52015139#3 52015139#4 1027596041 1027596042#0 1027596042#1 1027596042#2 685947368#0 685947368#1 685947369#2 685948070#1 -685948068" />
    </flow>
    <flow id="flow_89" type="bus_bus" begin="4115.92" end="200000" period="280.62">
        <route edges="38922410#0 699466068#1 699466068#2 -8956240#1 -8956240#0 52015139#0 52015139#2 52015139#3 52015139#4 1027596041 8955035#0 8955035#1 8955035#2 -8970323#0" />
    </flow>
    <flow id="flow_90" type="motorcycle_motorcycle" begin="4115.92" end="200000" period="280.62">
        <route edges="-8956059#5 -8956240#0 52015139#0 52015139#2 52015139#3 52015139#4 1027596041 1027596042#0 1027596042#1 1027596042#2" />
    </flow>
    <flow id="flow_91" type="veh_passenger" begin="4178.28" end="200000" period="93.53999999999999">
        <route edges="-8955035#0 -1027596041 -52015139#4 -52015139#3 -52015139#2 -52015139#1 685267199#0 8956240#1 8956240#2" />
    </flow>
    <flow id="flow_92" type="veh_passenger" begin="4240.64" end="200000" period="93.53999999999999">
        <route edges="8942481#0 8942481#1 -417316813#4 -417316813#3 -417316813#2 -417316813#1 52015139#0 52015139#2 52015139#3 52015139#4 1027596041 8955035#0 8955035#1 8955035#2 8970323#1" />
    </flow>
    <flow id="flow_93" type="bus_bus" begin="4303.00" end="200000" period="280.62">
        <route edges="8970323#1 8970323#2 -685948069 -685948070#0 -685947369#0 -685947368#0 -1027596042#2 -1027596042#1 -1027596042#0 -1027596041 -52015139#4 -8959754#2 -8959754#1 117887168#1 -38922410#2 -8956059#0 -699466498#0" />
    </flow>
    <flow id="flow_94" type="motorcycle_motorcycle" begin="4303.00" end="200000" period="280.62">
        <route edges="8935314 -1027596041 -52015139#4" />
    </flow>
    <flow id="flow_95" type="veh_passenger" begin="4365.36" end="200000" period="93.53999999999999">
        <route edges="8935314 -1027596041 -52015139#4 -52015139#3 -52015139#2 -52015139#1 -698769622#0 -435715052#1 -435715052#0" />
    </flow>
    <flow id="flow_96" type="veh_passenger" begin="4427.72" end="200000" period="93.53999999999999">
        <route edges="-8955035#0 -1027596041 -52015139#4 -52015139#3 -52015139#2 -52015139#1 417316813#1 417316813#2 417316813#3 417316813#4 417316813#6 417316813#7" />
    </flow>
    <flow id="flow_97" type="veh_passenger" begin="4490.08" end="200000" period="93.53999999999999">
        <route edges="-685948070#0 -685947369#0 -685947368#0 -1027596042#2 -1027596042#1 -1027596042#0 -1027596041 -52015139#4 -52015139#3 -52015139#2 -52015139#1 417316813#1 417316813#2 417316813#3 417316813#4 417316813#6 417316813#7" />
    </flow>
    <flow id="flow_98" type="bus_bus" begin="4552.44" end="200000" period="280.62">
        <route edges="-8955035#3 -8955035#2 -8955035#1 -8955035#0 -1027596041 -52015139#4 -8959754#2 -8959754#1 117887168#1 -38922410#2 -8956059#0 -699466498#0" />
    </flow>
    <flow id="flow_99" type="veh_passenger" begin="4614.80" end="200000" period="93.53999999999999">
        <route edges="-8955035#3 -8955035#2 -8955035#1 -8955035#0 -1027596041 -52015139#4 -52015139#3 -52015139#2 -52015139#1 685267199#0 8956240#1 8956240#2" />
    </flow>
    <flow id="flow_100" type="veh_passenger" begin="4677.16" end="200000" period="93.53999999999999">
        <route edges="699466068#1 699466068#2 -8956240#1 -8956240#0 52015139#0 52015139#2 52015139#3 52015139#4 1027596041 8955035#0 8955035#1 8955035#2 8955035#3" />
    </flow>
    <flow id="flow_101" type="veh_passenger" begin="4739.52" end="200000" period="93.53999999999999">
        <route edges="8935314 -1027596041 -52015139#4 -52015139#3 -52015139#2 -52015139#1 -698769622#0 -435715052#1 -435715052#0" />
    </flow>
    <flow id="flow_102" type="veh_passenger" begin="4801.88" end="200000" period="93.53999999999999">
        <route edges="-8955035#0 -1027596041 -52015139#4 -52015139#3 -52015139#2 -52015139#1 417316813#1 417316813#2 417316813#3 417316813#4 417316813#6 417316813#7" />
    </flow>
    <flow id="flow_103" type="bus_bus" begin="4864.24" end="200000" period="280.62">
        <route edges="-685948070#0 -685947369#0 -685947368#0 -1027596042#2 -1027596042#1 -1027596042#0 -1027596041 -52015139#4 -52015139#3 -52015139#2 -52015139#1 685267199#0 -8956059#2 -8956059#1 38922410#2" />
    </flow>
    <flow id="flow_104" type="motorcycle_motorcycle" begin="4864.24" end="200000" period="280.62">
        <route edges="8935314 -1027596041 -52015139#4" />
    </flow>
    <flow id="flow_105" type="veh_passenger" begin="4926.60" end="200000" period="93.53999999999999">
        <route edges="8935314 -1027596041 -52015139#4 -52015139#3 -52015139#2 -52015139#1 -698769622#0 -435715052#1 -435715052#0" />
    </flow>
    <flow id="flow_106" type="veh_passenger" begin="4988.96" end="200000" period="93.53999999999999">
        <route edges="-8955035#0 -1027596041 -52015139#4 -52015139#3 -52015139#2 -52015139#1 417316813#1 417316813#2 417316813#3 417316813#4 417316813#6 417316813#7" />
    </flow>
    <flow id="flow_107" type="bus_bus" begin="5051.32" end="200000" period="280.62">
        <route edges="-8955035#3 -8955035#2 -8955035#1 -8955035#0 -1027596041 -52015139#4 -8959754#2 -8959754#1 117887168#1 -38922410#2 -8956059#0 -699466498#0" />
    </flow>
    <flow id="flow_108" type="veh_passenger" begin="5113.68" end="200000" period="93.53999999999999">
        <route edges="-8955035#3 -8955035#2 -8955035#1 -8955035#0 -1027596041 -52015139#4 -52015139#3 -52015139#2 -52015139#1 685267199#0 8956240#1 8956240#2" />
    </flow>
    <flow id="flow_109" type="veh_passenger" begin="5176.04" end="200000" period="93.53999999999999">
        <route edges="699466068#1 699466068#2 -8956240#1 -8956240#0 52015139#0 52015139#2 52015139#3 52015139#4 1027596041 8955035#0 8955035#1 8955035#2 8955035#3" />
    </flow>
    <flow id="flow_110" type="veh_passenger" begin="5238.40" end="200000" period="93.53999999999999">
        <route edges="8935314 -1027596041 -52015139#4 -52015139#3 -52015139#2 -52015139#1 -698769622#0 -435715052#1 -435715052#0" />